
     RDKit          3D

 17 16  0  0  0  0  0  0  0  0999 V2000
   17.8154   12.1355  -39.7764 N   0  0  0  0  0  0  0  0  0  0  0  0
   18.6509   12.8019  -40.7727 C   0  0  1  0  0  0  0  0  0  0  0  0
   17.7527   13.1384  -41.9513 C   0  0  0  0  0  0  0  0  0  0  0  0
   18.5110   13.8126  -43.0447 C   0  0  0  0  0  0  0  0  0  0  0  0
   17.6757   14.1435  -44.2401 C   0  0  2  0  0  0  0  0  0  0  0  0
   16.4562   13.4667  -44.2436 O   0  0  0  0  0  0  0  0  0  0  0  0
   18.4480   14.0423  -45.5035 C   0  0  1  0  0  0  0  0  0  0  0  0
   19.3517   12.9342  -45.4755 N   0  0  0  0  0  0  0  0  0  0  0  0
   17.5588   14.0198  -46.7313 C   0  0  0  0  0  0  0  0  0  0  0  0
   17.4950   15.2987  -47.2299 O   0  0  0  0  0  0  0  0  0  0  0  0
   16.4902   15.4172  -48.5673 S   0  0  0  0  0  6  0  0  0  0  0  0
   17.0752   14.6838  -49.7276 O   0  0  0  0  0  0  0  0  0  0  0  0
   16.3721   16.8675  -48.9364 O   0  0  0  0  0  0  0  0  0  0  0  0
   14.9368   14.8647  -48.2167 O   0  0  0  0  0  0  0  0  0  0  0  0
   19.2649   13.9774  -40.1455 C   0  0  0  0  0  0  0  0  0  0  0  0
   20.5398   14.0593  -40.1428 O   0  0  0  0  0  0  0  0  0  0  0  0
   18.5817   15.0207  -39.5498 O   0  0  0  0  0  0  0  0  0  0  0  0
  2  1  1  1
  2  3  1  0
  3  4  1  0
  4  5  1  0
  5  6  1  6
  5  7  1  0
  7  8  1  1
  7  9  1  0
  9 10  1  0
 10 11  1  0
 11 12  2  0
 11 13  2  0
 11 14  1  0
  2 15  1  0
 15 16  2  0
 15 17  1  0
M  END
$$$$
