
     RDKit          3D

 17 16  0  0  0  0  0  0  0  0999 V2000
   20.3079   11.8754  -40.9415 N   0  0  0  0  0  0  0  0  0  0  0  0
   19.4206   13.0196  -41.1380 C   0  0  1  0  0  0  0  0  0  0  0  0
   18.3911   12.6091  -42.1774 C   0  0  0  0  0  0  0  0  0  0  0  0
   18.0307   13.7467  -43.0726 C   0  0  0  0  0  0  0  0  0  0  0  0
   16.9129   13.4381  -44.0166 C   0  0  2  0  0  0  0  0  0  0  0  0
   15.8530   12.7802  -43.3928 O   0  0  0  0  0  0  0  0  0  0  0  0
   17.3990   12.7946  -45.2627 C   0  0  1  0  0  0  0  0  0  0  0  0
   16.5684   11.6930  -45.6394 N   0  0  0  0  0  0  0  0  0  0  0  0
   17.5813   13.7832  -46.3976 C   0  0  0  0  0  0  0  0  0  0  0  0
   16.3882   13.8749  -47.0733 O   0  0  0  0  0  0  0  0  0  0  0  0
   16.5676   14.5276  -48.6075 S   0  0  0  0  0  6  0  0  0  0  0  0
   16.8782   15.9847  -48.5231 O   0  0  0  0  0  0  0  0  0  0  0  0
   15.2677   14.3637  -49.3404 O   0  0  0  0  0  0  0  0  0  0  0  0
   17.7438   13.7032  -49.4897 O   0  0  0  0  0  0  0  0  0  0  0  0
   18.8373   13.3768  -39.8401 C   0  0  0  0  0  0  0  0  0  0  0  0
   18.6850   12.4495  -38.9747 O   0  0  0  0  0  0  0  0  0  0  0  0
   18.4328   14.6428  -39.4608 O   0  0  0  0  0  0  0  0  0  0  0  0
  2  1  1  1
  2  3  1  0
  3  4  1  0
  4  5  1  0
  5  6  1  1
  5  7  1  0
  7  8  1  6
  7  9  1  0
  9 10  1  0
 10 11  1  0
 11 12  2  0
 11 13  2  0
 11 14  1  0
  2 15  1  0
 15 16  2  0
 15 17  1  0
M  END
$$$$
