
     RDKit          3D

 17 16  0  0  0  0  0  0  0  0999 V2000
   16.3955   12.9509  -39.7029 N   0  0  0  0  0  0  0  0  0  0  0  0
   17.3456   12.5763  -40.7479 C   0  0  1  0  0  0  0  0  0  0  0  0
   16.8440   13.1905  -42.0441 C   0  0  0  0  0  0  0  0  0  0  0  0
   17.7227   12.8354  -43.1961 C   0  0  0  0  0  0  0  0  0  0  0  0
   17.1585   13.2250  -44.5250 C   0  0  2  0  0  0  0  0  0  0  0  0
   15.8603   12.7513  -44.7139 O   0  0  0  0  0  0  0  0  0  0  0  0
   18.0973   12.9297  -45.6360 C   0  0  1  0  0  0  0  0  0  0  0  0
   18.5929   11.5904  -45.5585 N   0  0  0  0  0  0  0  0  0  0  0  0
   17.5065   13.2393  -46.9976 C   0  0  0  0  0  0  0  0  0  0  0  0
   17.3083   14.5971  -47.0729 O   0  0  0  0  0  0  0  0  0  0  0  0
   16.5352   15.0556  -48.4886 S   0  0  0  0  0  6  0  0  0  0  0  0
   16.3311   16.5335  -48.5181 O   0  0  0  0  0  0  0  0  0  0  0  0
   15.1888   14.3923  -48.5221 O   0  0  0  0  0  0  0  0  0  0  0  0
   17.3831   14.5296  -49.8471 O   0  0  0  0  0  0  0  0  0  0  0  0
   18.6765   13.0474  -40.3491 C   0  0  0  0  0  0  0  0  0  0  0  0
   18.7677   14.2005  -39.8068 O   0  0  0  0  0  0  0  0  0  0  0  0
   19.8582   12.3481  -40.5066 O   0  0  0  0  0  0  0  0  0  0  0  0
  2  1  1  1
  2  3  1  0
  3  4  1  0
  4  5  1  0
  5  6  1  6
  5  7  1  0
  7  8  1  6
  7  9  1  0
  9 10  1  0
 10 11  1  0
 11 12  2  0
 11 13  2  0
 11 14  1  0
  2 15  1  0
 15 16  2  0
 15 17  1  0
M  END
$$$$
