
     RDKit          3D

 17 16  0  0  0  0  0  0  0  0999 V2000
   15.9689   13.5243  -40.2115 N   0  0  0  0  0  0  0  0  0  0  0  0
   17.0492   12.6092  -40.5726 C   0  0  1  0  0  0  0  0  0  0  0  0
   17.0302   12.4757  -42.0861 C   0  0  0  0  0  0  0  0  0  0  0  0
   17.3417   13.7719  -42.7556 C   0  0  0  0  0  0  0  0  0  0  0  0
   17.2647   13.7115  -44.2477 C   0  0  2  0  0  0  0  0  0  0  0  0
   16.9885   12.4274  -44.7170 O   0  0  0  0  0  0  0  0  0  0  0  0
   18.4263   14.3738  -44.8919 C   0  0  1  0  0  0  0  0  0  0  0  0
   19.6463   13.6867  -44.6007 N   0  0  0  0  0  0  0  0  0  0  0  0
   18.2303   14.5776  -46.3814 C   0  0  0  0  0  0  0  0  0  0  0  0
   16.8803   14.6713  -46.6205 O   0  0  0  0  0  0  0  0  0  0  0  0
   16.5312   14.9231  -48.2413 S   0  0  0  0  0  6  0  0  0  0  0  0
   15.0556   14.9769  -48.4564 O   0  0  0  0  0  0  0  0  0  0  0  0
   17.0804   13.7654  -49.0234 O   0  0  0  0  0  0  0  0  0  0  0  0
   17.2832   16.3162  -48.8201 O   0  0  0  0  0  0  0  0  0  0  0  0
   18.3062   13.1512  -40.0447 C   0  0  0  0  0  0  0  0  0  0  0  0
   19.3592   12.4351  -40.1481 O   0  0  0  0  0  0  0  0  0  0  0  0
   18.4593   14.3838  -39.4386 O   0  0  0  0  0  0  0  0  0  0  0  0
  2  1  1  6
  2  3  1  0
  3  4  1  0
  4  5  1  0
  5  6  1  1
  5  7  1  0
  7  8  1  6
  7  9  1  0
  9 10  1  0
 10 11  1  0
 11 12  2  0
 11 13  2  0
 11 14  1  0
  2 15  1  0
 15 16  2  0
 15 17  1  0
M  END
$$$$
