
     RDKit          3D

 17 16  0  0  0  0  0  0  0  0999 V2000
   19.8613   11.8122  -40.7540 N   0  0  0  0  0  0  0  0  0  0  0  0
   19.5947   13.0735  -40.0664 C   0  0  1  0  0  0  0  0  0  0  0  0
   19.2879   14.1065  -41.1377 C   0  0  0  0  0  0  0  0  0  0  0  0
   18.5645   13.5009  -42.2933 C   0  0  0  0  0  0  0  0  0  0  0  0
   18.2802   14.4678  -43.3980 C   0  0  2  0  0  0  0  0  0  0  0  0
   17.6763   15.6389  -42.9408 O   0  0  0  0  0  0  0  0  0  0  0  0
   17.5936   13.8184  -44.5425 C   0  0  1  0  0  0  0  0  0  0  0  0
   16.2887   13.3612  -44.1769 N   0  0  0  0  0  0  0  0  0  0  0  0
   17.5629   14.6954  -45.7789 C   0  0  0  0  0  0  0  0  0  0  0  0
   16.8060   14.0561  -46.7311 O   0  0  0  0  0  0  0  0  0  0  0  0
   16.7078   14.9242  -48.1625 S   0  0  0  0  0  6  0  0  0  0  0  0
   18.0707   15.2931  -48.6452 O   0  0  0  0  0  0  0  0  0  0  0  0
   15.9448   16.1883  -47.8915 O   0  0  0  0  0  0  0  0  0  0  0  0
   15.8543   14.0703  -49.3389 O   0  0  0  0  0  0  0  0  0  0  0  0
   18.4922   12.8582  -39.1227 C   0  0  0  0  0  0  0  0  0  0  0  0
   18.0162   11.6775  -39.0148 O   0  0  0  0  0  0  0  0  0  0  0  0
   17.9134   13.8284  -38.3265 O   0  0  0  0  0  0  0  0  0  0  0  0
  2  1  1  6
  2  3  1  0
  3  4  1  0
  4  5  1  0
  5  6  1  1
  5  7  1  0
  7  8  1  1
  7  9  1  0
  9 10  1  0
 10 11  1  0
 11 12  2  0
 11 13  2  0
 11 14  1  0
  2 15  1  0
 15 16  2  0
 15 17  1  0
M  END
$$$$
