
     RDKit          3D

 17 16  0  0  0  0  0  0  0  0999 V2000
   20.2146   11.8212  -41.1476 N   0  0  0  0  0  0  0  0  0  0  0  0
   19.6427   13.1657  -41.1338 C   0  0  1  0  0  0  0  0  0  0  0  0
   18.4754   13.1611  -42.1066 C   0  0  0  0  0  0  0  0  0  0  0  0
   18.5867   14.2656  -43.1031 C   0  0  0  0  0  0  0  0  0  0  0  0
   17.4453   14.3224  -44.0675 C   0  0  2  0  0  0  0  0  0  0  0  0
   16.2120   14.1200  -43.4482 O   0  0  0  0  0  0  0  0  0  0  0  0
   17.6868   13.4798  -45.2653 C   0  0  1  0  0  0  0  0  0  0  0  0
   16.6887   12.4642  -45.3988 N   0  0  0  0  0  0  0  0  0  0  0  0
   17.8391   14.2972  -46.5331 C   0  0  0  0  0  0  0  0  0  0  0  0
   16.7051   14.1198  -47.2886 O   0  0  0  0  0  0  0  0  0  0  0  0
   16.6990   15.0696  -48.6706 S   0  0  0  0  0  6  0  0  0  0  0  0
   16.5037   16.5061  -48.3174 O   0  0  0  0  0  0  0  0  0  0  0  0
   15.5490   14.6347  -49.5320 O   0  0  0  0  0  0  0  0  0  0  0  0
   18.1067   14.8488  -49.5712 O   0  0  0  0  0  0  0  0  0  0  0  0
   19.2591   13.4876  -39.7548 C   0  0  0  0  0  0  0  0  0  0  0  0
   18.9616   12.5218  -38.9733 O   0  0  0  0  0  0  0  0  0  0  0  0
   19.1904   14.7578  -39.2143 O   0  0  0  0  0  0  0  0  0  0  0  0
  2  1  1  1
  2  3  1  0
  3  4  1  0
  4  5  1  0
  5  6  1  1
  5  7  1  0
  7  8  1  6
  7  9  1  0
  9 10  1  0
 10 11  1  0
 11 12  2  0
 11 13  2  0
 11 14  1  0
  2 15  1  0
 15 16  2  0
 15 17  1  0
M  END
$$$$
