
     RDKit          3D

 17 16  0  0  0  0  0  0  0  0999 V2000
   20.0439   11.7209  -41.1764 N   0  0  0  0  0  0  0  0  0  0  0  0
   19.3469   12.9914  -41.3634 C   0  0  1  0  0  0  0  0  0  0  0  0
   18.3282   12.7796  -42.4708 C   0  0  0  0  0  0  0  0  0  0  0  0
   18.3973   13.8620  -43.4950 C   0  0  0  0  0  0  0  0  0  0  0  0
   17.1600   13.9834  -44.3258 C   0  0  2  0  0  0  0  0  0  0  0  0
   15.9944   13.8667  -43.5686 O   0  0  0  0  0  0  0  0  0  0  0  0
   17.2107   13.1161  -45.5291 C   0  0  1  0  0  0  0  0  0  0  0  0
   16.6455   11.8285  -45.2686 N   0  0  0  0  0  0  0  0  0  0  0  0
   16.5925   13.7722  -46.7482 C   0  0  0  0  0  0  0  0  0  0  0  0
   17.6038   14.3590  -47.4702 O   0  0  0  0  0  0  0  0  0  0  0  0
   17.0381   15.1760  -48.8209 S   0  0  0  0  0  6  0  0  0  0  0  0
   16.0222   16.1959  -48.4280 O   0  0  0  0  0  0  0  0  0  0  0  0
   16.3790   14.1786  -49.7288 O   0  0  0  0  0  0  0  0  0  0  0  0
   18.3032   15.8771  -49.6866 O   0  0  0  0  0  0  0  0  0  0  0  0
   18.7506   13.3814  -40.0810 C   0  0  0  0  0  0  0  0  0  0  0  0
   18.8537   14.6017  -39.7173 O   0  0  0  0  0  0  0  0  0  0  0  0
   18.0759   12.5387  -39.2180 O   0  0  0  0  0  0  0  0  0  0  0  0
  2  1  1  1
  2  3  1  0
  3  4  1  0
  4  5  1  0
  5  6  1  1
  5  7  1  0
  7  8  1  1
  7  9  1  0
  9 10  1  0
 10 11  1  0
 11 12  2  0
 11 13  2  0
 11 14  1  0
  2 15  1  0
 15 16  2  0
 15 17  1  0
M  END
$$$$
