
     RDKit          3D

 17 16  0  0  0  0  0  0  0  0999 V2000
   20.9473   10.2314  -37.5648 N   0  0  0  0  0  0  0  0  0  0  0  0
   21.0999   11.5767  -38.1143 C   0  0  1  0  0  0  0  0  0  0  0  0
   20.0287   11.7451  -39.1788 C   0  0  0  0  0  0  0  0  0  0  0  0
   20.0249   13.1271  -39.7403 C   0  0  0  0  0  0  0  0  0  0  0  0
   18.9547   13.3593  -40.7585 C   0  0  2  0  0  0  0  0  0  0  0  0
   17.8210   12.5799  -40.5293 O   0  0  0  0  0  0  0  0  0  0  0  0
   19.4828   13.2986  -42.1443 C   0  0  1  0  0  0  0  0  0  0  0  0
   20.1075   12.0398  -42.4100 N   0  0  0  0  0  0  0  0  0  0  0  0
   18.4349   13.6439  -43.1842 C   0  0  0  0  0  0  0  0  0  0  0  0
   18.3342   15.0131  -43.2435 O   0  0  0  0  0  0  0  0  0  0  0  0
   17.3095   15.5293  -44.4664 S   0  0  0  0  0  6  0  0  0  0  0  0
   17.1555   17.0130  -44.4286 O   0  0  0  0  0  0  0  0  0  0  0  0
   15.9613   14.9089  -44.2399 O   0  0  0  0  0  0  0  0  0  0  0  0
   17.8488   15.0102  -45.9768 O   0  0  0  0  0  0  0  0  0  0  0  0
   20.9911   12.5384  -37.0118 C   0  0  0  0  0  0  0  0  0  0  0  0
   21.8586   13.4737  -36.9432 O   0  0  0  0  0  0  0  0  0  0  0  0
   20.0216   12.5271  -36.0269 O   0  0  0  0  0  0  0  0  0  0  0  0
  2  1  1  1
  2  3  1  0
  3  4  1  0
  4  5  1  0
  5  6  1  6
  5  7  1  0
  7  8  1  6
  7  9  1  0
  9 10  1  0
 10 11  1  0
 11 12  2  0
 11 13  2  0
 11 14  1  0
  2 15  1  0
 15 16  2  0
 15 17  1  0
M  END
$$$$
