
     RDKit          3D

 17 16  0  0  0  0  0  0  0  0999 V2000
   20.2046   12.3292  -41.4149 N   0  0  0  0  0  0  0  0  0  0  0  0
   19.5119   13.5126  -40.9102 C   0  0  1  0  0  0  0  0  0  0  0  0
   19.1528   14.3643  -42.1163 C   0  0  0  0  0  0  0  0  0  0  0  0
   18.2200   13.6495  -43.0351 C   0  0  0  0  0  0  0  0  0  0  0  0
   18.2810   14.1329  -44.4489 C   0  0  2  0  0  0  0  0  0  0  0  0
   18.5305   15.5024  -44.5351 O   0  0  0  0  0  0  0  0  0  0  0  0
   17.1243   13.6587  -45.2491 C   0  0  1  0  0  0  0  0  0  0  0  0
   16.0410   13.2504  -44.4094 N   0  0  0  0  0  0  0  0  0  0  0  0
   16.6853   14.6656  -46.2942 C   0  0  0  0  0  0  0  0  0  0  0  0
   17.6254   14.6711  -47.2963 O   0  0  0  0  0  0  0  0  0  0  0  0
   16.9888   15.1513  -48.7715 S   0  0  0  0  0  6  0  0  0  0  0  0
   16.2716   16.4524  -48.6331 O   0  0  0  0  0  0  0  0  0  0  0  0
   16.0002   14.1122  -49.2148 O   0  0  0  0  0  0  0  0  0  0  0  0
   18.1853   15.2373  -49.9557 O   0  0  0  0  0  0  0  0  0  0  0  0
   18.3482   13.0682  -40.1353 C   0  0  0  0  0  0  0  0  0  0  0  0
   17.7599   13.9241  -39.3913 O   0  0  0  0  0  0  0  0  0  0  0  0
   17.8205   11.7909  -40.1369 O   0  0  0  0  0  0  0  0  0  0  0  0
  2  1  1  6
  2  3  1  0
  3  4  1  0
  4  5  1  0
  5  6  1  1
  5  7  1  0
  7  8  1  1
  7  9  1  0
  9 10  1  0
 10 11  1  0
 11 12  2  0
 11 13  2  0
 11 14  1  0
  2 15  1  0
 15 16  2  0
 15 17  1  0
M  END
$$$$
