
     RDKit          3D

 17 16  0  0  0  0  0  0  0  0999 V2000
   16.7613   13.0565  -38.8270 N   0  0  0  0  0  0  0  0  0  0  0  0
   17.5715   12.6182  -39.9612 C   0  0  1  0  0  0  0  0  0  0  0  0
   17.3730   13.6393  -41.0689 C   0  0  0  0  0  0  0  0  0  0  0  0
   18.1461   13.2792  -42.2928 C   0  0  0  0  0  0  0  0  0  0  0  0
   18.0145   14.2740  -43.4014 C   0  0  2  0  0  0  0  0  0  0  0  0
   17.1287   15.3057  -43.0911 O   0  0  0  0  0  0  0  0  0  0  0  0
   17.7734   13.6186  -44.7111 C   0  0  1  0  0  0  0  0  0  0  0  0
   16.6103   12.7873  -44.6724 N   0  0  0  0  0  0  0  0  0  0  0  0
   17.7273   14.6077  -45.8593 C   0  0  0  0  0  0  0  0  0  0  0  0
   16.6646   14.2720  -46.6632 O   0  0  0  0  0  0  0  0  0  0  0  0
   16.7207   15.0368  -48.1545 S   0  0  0  0  0  6  0  0  0  0  0  0
   16.5796   16.5132  -47.9909 O   0  0  0  0  0  0  0  0  0  0  0  0
   15.5677   14.5408  -48.9781 O   0  0  0  0  0  0  0  0  0  0  0  0
   18.1325   14.6476  -48.9892 O   0  0  0  0  0  0  0  0  0  0  0  0
   18.9632   12.4987  -39.5127 C   0  0  0  0  0  0  0  0  0  0  0  0
   19.6525   11.5157  -39.9497 O   0  0  0  0  0  0  0  0  0  0  0  0
   19.6078   13.3647  -38.6498 O   0  0  0  0  0  0  0  0  0  0  0  0
  2  1  1  1
  2  3  1  0
  3  4  1  0
  4  5  1  0
  5  6  1  1
  5  7  1  0
  7  8  1  1
  7  9  1  0
  9 10  1  0
 10 11  1  0
 11 12  2  0
 11 13  2  0
 11 14  1  0
  2 15  1  0
 15 16  2  0
 15 17  1  0
M  END
$$$$
