7D5C_GV6_holo_aligned_esmfold_protein
     RDKit          3D

 31 33  0  0  0  0  0  0  0  0999 V2000
    8.2839    3.6725   43.8132 C   0  0  0  0  0  0  0  0  0  0  0  0
    9.5494    4.4878   43.8732 C   0  0  0  0  0  0  0  0  0  0  0  0
   10.7838    3.6034   43.6914 C   0  0  2  0  0  0  0  0  0  0  0  0
   10.9542    2.6685   44.9079 C   0  0  0  0  0  0  0  0  0  0  0  0
   12.1099    4.3392   43.4043 C   0  0  2  0  0  0  0  0  0  0  0  0
   12.6809    5.0153   44.5787 N   0  0  0  0  0  0  0  0  0  0  0  0
   12.1969    5.2498   42.1202 C   0  0  0  0  0  0  0  0  0  0  0  0
   12.0705    4.6776   41.0472 O   0  0  0  0  0  0  0  0  0  0  0  0
   12.5557    6.5619   42.2221 O   0  0  0  0  0  0  0  0  0  0  0  0
   12.7580    7.3009   40.7810 P   0  0  2  0  0  5  0  0  0  0  0  0
   13.8463    6.7104   39.9746 O   0  0  0  0  0  0  0  0  0  0  0  0
   13.1706    8.8194   41.0148 O   0  0  0  0  0  0  0  0  0  0  0  0
   11.3959    7.3097   39.9332 O   0  0  0  0  0  0  0  0  0  0  0  0
   10.2193    7.5743   40.7223 C   0  0  0  0  0  0  0  0  0  0  0  0
    8.9799    7.3803   39.8191 C   0  0  1  0  0  0  0  0  0  0  0  0
    9.0002    8.0166   38.5306 O   0  0  0  0  0  0  0  0  0  0  0  0
    8.3227    7.1558   37.5973 C   0  0  1  0  0  0  0  0  0  0  0  0
    9.2194    6.8311   36.4871 N   0  0  0  0  0  0  0  0  0  0  0  0
   10.6088    6.7320   36.4679 C   0  0  0  0  0  0  0  0  0  0  0  0
   11.0974    6.9154   35.2583 N   0  0  0  0  0  0  0  0  0  0  0  0
    9.9708    7.1493   34.4547 C   0  0  0  0  0  0  0  0  0  0  0  0
    9.7494    7.6172   33.1511 C   0  0  0  0  0  0  0  0  0  0  0  0
   10.7423    8.0572   32.3035 N   0  0  0  0  0  0  0  0  0  0  0  0
    8.5162    7.7812   32.6822 N   0  0  0  0  0  0  0  0  0  0  0  0
    7.4531    7.5012   33.4642 C   0  0  0  0  0  0  0  0  0  0  0  0
    7.5751    7.1527   34.7500 N   0  0  0  0  0  0  0  0  0  0  0  0
    8.8217    6.9982   35.2020 C   0  0  0  0  0  0  0  0  0  0  0  0
    7.8592    5.9216   38.3645 C   0  0  2  0  0  0  0  0  0  0  0  0
    6.5088    6.1814   38.7887 O   0  0  0  0  0  0  0  0  0  0  0  0
    8.9076    5.9189   39.4771 C   0  0  2  0  0  0  0  0  0  0  0  0
    8.7160    5.2129   40.6946 O   0  0  0  0  0  0  0  0  0  0  0  0
  1  2  1  0
  2  3  1  0
  3  4  1  1
  3  5  1  0
  5  6  1  1
  5  7  1  0
  7  8  2  0
  7  9  1  0
 10  9  1  0
 10 11  2  0
 10 12  1  1
 10 13  1  0
 13 14  1  0
 15 14  1  6
 15 16  1  0
 16 17  1  0
 17 18  1  6
 18 19  1  0
 19 20  2  0
 20 21  1  0
 21 22  2  0
 22 23  1  0
 22 24  1  0
 24 25  2  0
 25 26  1  0
 26 27  2  0
 17 28  1  0
 28 29  1  1
 28 30  1  0
 30 31  1  1
 30 15  1  0
 27 18  1  0
 27 21  1  0
M  END
