
     RDKit          3D

 31 33  0  0  0  0  0  0  0  0999 V2000
    9.7021    2.4107   46.8396 C   0  0  0  0  0  0  0  0  0  0  0  0
    9.2923    3.3365   45.7472 C   0  0  0  0  0  0  0  0  0  0  0  0
   10.3430    3.6998   44.7575 C   0  0  2  0  0  0  0  0  0  0  0  0
   11.6760    4.0357   45.4087 C   0  0  0  0  0  0  0  0  0  0  0  0
    9.9544    4.5872   43.6385 C   0  0  2  0  0  0  0  0  0  0  0  0
    8.7714    3.9940   43.0124 N   0  0  0  0  0  0  0  0  0  0  0  0
   10.9397    4.8238   42.5858 C   0  0  0  0  0  0  0  0  0  0  0  0
   11.0778    3.9998   41.6159 O   0  0  0  0  0  0  0  0  0  0  0  0
   11.7982    5.9102   42.5082 O   0  0  0  0  0  0  0  0  0  0  0  0
   12.4701    6.4893   41.0617 P   0  0  2  0  0  5  0  0  0  0  0  0
   13.4864    5.4560   40.5752 O   0  0  0  0  0  0  0  0  0  0  0  0
   13.3013    7.9366   41.2559 O   0  0  0  0  0  0  0  0  0  0  0  0
   11.3187    6.6302   39.8250 O   0  0  0  0  0  0  0  0  0  0  0  0
   10.0835    6.8160   40.4508 C   0  0  0  0  0  0  0  0  0  0  0  0
    9.0513    6.9681   39.3609 C   0  0  1  0  0  0  0  0  0  0  0  0
    9.4533    7.9092   38.4057 O   0  0  0  0  0  0  0  0  0  0  0  0
    8.6617    7.7178   37.3048 C   0  0  1  0  0  0  0  0  0  0  0  0
    9.3606    7.9342   36.0532 N   0  0  0  0  0  0  0  0  0  0  0  0
   10.7004    8.0271   35.9554 C   0  0  0  0  0  0  0  0  0  0  0  0
   11.0614    8.2275   34.6762 N   0  0  0  0  0  0  0  0  0  0  0  0
    9.9474    8.2637   33.9472 C   0  0  0  0  0  0  0  0  0  0  0  0
    9.7082    8.4403   32.5847 C   0  0  0  0  0  0  0  0  0  0  0  0
   10.8167    8.6237   31.7429 N   0  0  0  0  0  0  0  0  0  0  0  0
    8.4296    8.4213   32.1805 N   0  0  0  0  0  0  0  0  0  0  0  0
    7.4029    8.2396   33.0454 C   0  0  0  0  0  0  0  0  0  0  0  0
    7.6301    8.0689   34.3607 N   0  0  0  0  0  0  0  0  0  0  0  0
    8.8966    8.0805   34.8121 C   0  0  0  0  0  0  0  0  0  0  0  0
    8.1786    6.2925   37.3079 C   0  0  2  0  0  0  0  0  0  0  0  0
    6.8054    6.2988   37.5636 O   0  0  0  0  0  0  0  0  0  0  0  0
    8.9494    5.7230   38.5048 C   0  0  2  0  0  0  0  0  0  0  0  0
    8.2306    4.7152   39.1363 O   0  0  0  0  0  0  0  0  0  0  0  0
  1  2  1  0
  2  3  1  0
  3  4  1  1
  3  5  1  0
  5  6  1  6
  5  7  1  0
  7  8  2  0
  7  9  1  0
  9 10  1  0
 10 11  2  0
 10 12  1  1
 10 13  1  0
 13 14  1  0
 15 14  1  1
 15 16  1  0
 16 17  1  0
 17 18  1  6
 18 19  1  0
 19 20  2  0
 20 21  1  0
 21 22  2  0
 22 23  1  0
 22 24  1  0
 24 25  2  0
 25 26  1  0
 26 27  2  0
 17 28  1  0
 28 29  1  1
 28 30  1  0
 30 31  1  1
 30 15  1  0
 27 18  1  0
 27 21  1  0
M  END
$$$$
