
     RDKit          3D

 31 33  0  0  0  0  0  0  0  0999 V2000
    8.0543    4.6537   44.9322 C   0  0  0  0  0  0  0  0  0  0  0  0
    9.4917    4.9172   44.6445 C   0  0  0  0  0  0  0  0  0  0  0  0
   10.3739    3.7239   44.5289 C   0  0  2  0  0  0  0  0  0  0  0  0
   10.2354    2.7715   45.7068 C   0  0  0  0  0  0  0  0  0  0  0  0
   11.7615    3.9390   44.0608 C   0  0  2  0  0  0  0  0  0  0  0  0
   12.4814    4.6061   45.1470 N   0  0  0  0  0  0  0  0  0  0  0  0
   11.9540    4.7335   42.8497 C   0  0  0  0  0  0  0  0  0  0  0  0
   11.5633    4.3015   41.7097 O   0  0  0  0  0  0  0  0  0  0  0  0
   12.5479    5.9851   42.7871 O   0  0  0  0  0  0  0  0  0  0  0  0
   12.7516    6.8699   41.3535 P   0  0  2  0  0  5  0  0  0  0  0  0
   14.0414    6.3875   40.6893 O   0  0  0  0  0  0  0  0  0  0  0  0
   12.9275    8.5198   41.6185 O   0  0  0  0  0  0  0  0  0  0  0  0
   11.5124    6.5798   40.2332 O   0  0  0  0  0  0  0  0  0  0  0  0
   10.3310    7.0420   40.8183 C   0  0  0  0  0  0  0  0  0  0  0  0
    9.2730    7.0435   39.7426 C   0  0  1  0  0  0  0  0  0  0  0  0
    9.5898    7.9420   38.7170 O   0  0  0  0  0  0  0  0  0  0  0  0
    8.7967    7.6180   37.6487 C   0  0  1  0  0  0  0  0  0  0  0  0
    9.4577    7.7962   36.3707 N   0  0  0  0  0  0  0  0  0  0  0  0
   10.7677    8.0811   36.2438 C   0  0  0  0  0  0  0  0  0  0  0  0
   11.0973    8.1888   34.9451 N   0  0  0  0  0  0  0  0  0  0  0  0
    9.9930    7.9720   34.2328 C   0  0  0  0  0  0  0  0  0  0  0  0
    9.7335    7.9552   32.8627 C   0  0  0  0  0  0  0  0  0  0  0  0
   10.8031    8.2097   31.9897 N   0  0  0  0  0  0  0  0  0  0  0  0
    8.4741    7.6957   32.4818 N   0  0  0  0  0  0  0  0  0  0  0  0
    7.4849    7.4579   33.3764 C   0  0  0  0  0  0  0  0  0  0  0  0
    7.7319    7.4733   34.6990 N   0  0  0  0  0  0  0  0  0  0  0  0
    8.9803    7.7291   35.1279 C   0  0  0  0  0  0  0  0  0  0  0  0
    8.4190    6.1655   37.7594 C   0  0  2  0  0  0  0  0  0  0  0  0
    7.0533    6.0912   38.0431 O   0  0  0  0  0  0  0  0  0  0  0  0
    9.2485    5.7375   38.9760 C   0  0  2  0  0  0  0  0  0  0  0  0
    8.6154    4.7273   39.6899 O   0  0  0  0  0  0  0  0  0  0  0  0
  1  2  1  0
  2  3  1  0
  3  4  1  1
  3  5  1  0
  5  6  1  1
  5  7  1  0
  7  8  2  0
  7  9  1  0
  9 10  1  0
 10 11  2  0
 10 12  1  1
 10 13  1  0
 13 14  1  0
 15 14  1  1
 15 16  1  0
 16 17  1  0
 17 18  1  6
 18 19  1  0
 19 20  2  0
 20 21  1  0
 21 22  2  0
 22 23  1  0
 22 24  1  0
 24 25  2  0
 25 26  1  0
 26 27  2  0
 17 28  1  0
 28 29  1  1
 28 30  1  0
 30 31  1  1
 30 15  1  0
 27 18  1  0
 27 21  1  0
M  END
$$$$
