
     RDKit          3D

 31 33  0  0  0  0  0  0  0  0999 V2000
    7.8485    4.2343   44.0863 C   0  0  0  0  0  0  0  0  0  0  0  0
    9.2390    4.7674   44.0631 C   0  0  0  0  0  0  0  0  0  0  0  0
   10.3299    3.7837   44.3031 C   0  0  2  0  0  0  0  0  0  0  0  0
   10.1148    2.9599   45.5636 C   0  0  0  0  0  0  0  0  0  0  0  0
   11.7221    4.2356   44.0835 C   0  0  2  0  0  0  0  0  0  0  0  0
   12.0668    5.1188   45.1991 N   0  0  0  0  0  0  0  0  0  0  0  0
   12.0158    4.9530   42.8450 C   0  0  0  0  0  0  0  0  0  0  0  0
   11.9516    4.3625   41.7109 O   0  0  0  0  0  0  0  0  0  0  0  0
   12.3778    6.2881   42.7477 O   0  0  0  0  0  0  0  0  0  0  0  0
   12.7079    7.0793   41.2833 P   0  0  2  0  0  5  0  0  0  0  0  0
   14.0068    6.4986   40.7241 O   0  0  0  0  0  0  0  0  0  0  0  0
   12.9526    8.7313   41.4690 O   0  0  0  0  0  0  0  0  0  0  0  0
   11.5211    6.7859   40.1083 O   0  0  0  0  0  0  0  0  0  0  0  0
   10.3118    7.2366   40.6432 C   0  0  0  0  0  0  0  0  0  0  0  0
    9.2802    7.1493   39.5456 C   0  0  1  0  0  0  0  0  0  0  0  0
    9.5827    8.0189   38.4912 O   0  0  0  0  0  0  0  0  0  0  0  0
    8.8292    7.6185   37.4202 C   0  0  1  0  0  0  0  0  0  0  0  0
    9.5118    7.7737   36.1506 N   0  0  0  0  0  0  0  0  0  0  0  0
   10.8357    7.9935   36.0395 C   0  0  0  0  0  0  0  0  0  0  0  0
   11.1840    8.0950   34.7452 N   0  0  0  0  0  0  0  0  0  0  0  0
   10.0779    7.9396   34.0198 C   0  0  0  0  0  0  0  0  0  0  0  0
    9.8324    7.9470   32.6471 C   0  0  0  0  0  0  0  0  0  0  0  0
   10.9227    8.1546   31.7872 N   0  0  0  0  0  0  0  0  0  0  0  0
    8.5657    7.7540   32.2511 N   0  0  0  0  0  0  0  0  0  0  0  0
    7.5565    7.5588   33.1334 C   0  0  0  0  0  0  0  0  0  0  0  0
    7.7898    7.5511   34.4586 N   0  0  0  0  0  0  0  0  0  0  0  0
    9.0449    7.7406   34.9024 C   0  0  0  0  0  0  0  0  0  0  0  0
    8.5105    6.1567   37.5822 C   0  0  2  0  0  0  0  0  0  0  0  0
    7.1429    6.0351   37.8390 O   0  0  0  0  0  0  0  0  0  0  0  0
    9.3286    5.8139   38.8329 C   0  0  2  0  0  0  0  0  0  0  0  0
    8.7221    4.8068   39.5738 O   0  0  0  0  0  0  0  0  0  0  0  0
  1  2  1  0
  2  3  1  0
  3  4  1  1
  3  5  1  0
  5  6  1  1
  5  7  1  0
  7  8  2  0
  7  9  1  0
  9 10  1  0
 10 11  2  0
 10 12  1  1
 10 13  1  0
 13 14  1  0
 15 14  1  1
 15 16  1  0
 16 17  1  0
 17 18  1  6
 18 19  1  0
 19 20  2  0
 20 21  1  0
 21 22  2  0
 22 23  1  0
 22 24  1  0
 24 25  2  0
 25 26  1  0
 26 27  2  0
 17 28  1  0
 28 29  1  1
 28 30  1  0
 30 31  1  1
 30 15  1  0
 27 18  1  0
 27 21  1  0
M  END
$$$$
