
     RDKit          3D

 31 33  0  0  0  0  0  0  0  0999 V2000
   10.8449    1.4977   46.1483 C   0  0  0  0  0  0  0  0  0  0  0  0
   10.3027    2.7575   45.5677 C   0  0  0  0  0  0  0  0  0  0  0  0
   11.1409    3.4257   44.5351 C   0  0  2  0  0  0  0  0  0  0  0  0
   12.5778    3.6365   44.9874 C   0  0  0  0  0  0  0  0  0  0  0  0
   10.5457    4.5634   43.7988 C   0  0  2  0  0  0  0  0  0  0  0  0
    9.2441    4.1165   43.2994 N   0  0  0  0  0  0  0  0  0  0  0  0
   11.2923    5.1036   42.6649 C   0  0  0  0  0  0  0  0  0  0  0  0
   11.2445    4.5400   41.5164 O   0  0  0  0  0  0  0  0  0  0  0  0
   12.0984    6.2318   42.6884 O   0  0  0  0  0  0  0  0  0  0  0  0
   12.6899    7.0065   41.2995 P   0  0  2  0  0  5  0  0  0  0  0  0
   13.8719    6.1884   40.7791 O   0  0  0  0  0  0  0  0  0  0  0  0
   13.2659    8.5551   41.6052 O   0  0  0  0  0  0  0  0  0  0  0  0
   11.5528    7.0363   40.0421 O   0  0  0  0  0  0  0  0  0  0  0  0
   10.3237    7.3546   40.6249 C   0  0  0  0  0  0  0  0  0  0  0  0
    9.2882    7.3160   39.5281 C   0  0  1  0  0  0  0  0  0  0  0  0
    9.6579    8.1277   38.4492 O   0  0  0  0  0  0  0  0  0  0  0  0
    8.8751    7.7560   37.3887 C   0  0  1  0  0  0  0  0  0  0  0  0
    9.5677    7.8197   36.1166 N   0  0  0  0  0  0  0  0  0  0  0  0
   10.8987    7.9884   36.0016 C   0  0  0  0  0  0  0  0  0  0  0  0
   11.2555    8.0085   34.7058 N   0  0  0  0  0  0  0  0  0  0  0  0
   10.1476    7.8519   33.9833 C   0  0  0  0  0  0  0  0  0  0  0  0
    9.9080    7.7940   32.6107 C   0  0  0  0  0  0  0  0  0  0  0  0
   11.0081    7.9182   31.7474 N   0  0  0  0  0  0  0  0  0  0  0  0
    8.6370    7.6230   32.2184 N   0  0  0  0  0  0  0  0  0  0  0  0
    7.6182    7.5097   33.1040 C   0  0  0  0  0  0  0  0  0  0  0  0
    7.8459    7.5652   34.4290 N   0  0  0  0  0  0  0  0  0  0  0  0
    9.1049    7.7356   34.8693 C   0  0  0  0  0  0  0  0  0  0  0  0
    8.4430    6.3291   37.5930 C   0  0  2  0  0  0  0  0  0  0  0  0
    7.0702    6.3224   37.8503 O   0  0  0  0  0  0  0  0  0  0  0  0
    9.2319    5.9604   38.8551 C   0  0  2  0  0  0  0  0  0  0  0  0
    8.5485    5.0262   39.6240 O   0  0  0  0  0  0  0  0  0  0  0  0
  1  2  1  0
  2  3  1  0
  3  4  1  1
  3  5  1  0
  5  6  1  6
  5  7  1  0
  7  8  2  0
  7  9  1  0
  9 10  1  0
 10 11  2  0
 10 12  1  1
 10 13  1  0
 13 14  1  0
 15 14  1  1
 15 16  1  0
 16 17  1  0
 17 18  1  6
 18 19  1  0
 19 20  2  0
 20 21  1  0
 21 22  2  0
 22 23  1  0
 22 24  1  0
 24 25  2  0
 25 26  1  0
 26 27  2  0
 17 28  1  0
 28 29  1  1
 28 30  1  0
 30 31  1  1
 30 15  1  0
 27 18  1  0
 27 21  1  0
M  END
$$$$
