
     RDKit          3D

 31 33  0  0  0  0  0  0  0  0999 V2000
    8.0025    4.0229   42.9695 C   0  0  0  0  0  0  0  0  0  0  0  0
    9.3197    4.4894   43.4848 C   0  0  0  0  0  0  0  0  0  0  0  0
   10.4026    3.4706   43.5543 C   0  0  2  0  0  0  0  0  0  0  0  0
    9.9945    2.2278   44.3306 C   0  0  0  0  0  0  0  0  0  0  0  0
   11.7781    3.9481   43.8199 C   0  0  2  0  0  0  0  0  0  0  0  0
   11.8372    4.3183   45.2352 N   0  0  0  0  0  0  0  0  0  0  0  0
   12.2630    5.0877   43.0445 C   0  0  0  0  0  0  0  0  0  0  0  0
   12.7114    6.1366   43.6256 O   0  0  0  0  0  0  0  0  0  0  0  0
   12.2987    5.1704   41.6607 O   0  0  0  0  0  0  0  0  0  0  0  0
   12.8758    6.5163   40.8034 P   0  0  2  0  0  5  0  0  0  0  0  0
   13.4867    6.0081   39.4974 O   0  0  0  0  0  0  0  0  0  0  0  0
   14.0890    7.3447   41.6192 O   0  0  0  0  0  0  0  0  0  0  0  0
   11.6327    7.5788   40.3553 O   0  0  0  0  0  0  0  0  0  0  0  0
   10.4600    7.0848   40.9319 C   0  0  0  0  0  0  0  0  0  0  0  0
    9.3708    7.2023   39.8945 C   0  0  1  0  0  0  0  0  0  0  0  0
    9.7713    8.0105   38.8240 O   0  0  0  0  0  0  0  0  0  0  0  0
    8.8978    7.7682   37.7975 C   0  0  1  0  0  0  0  0  0  0  0  0
    9.5257    7.8058   36.4913 N   0  0  0  0  0  0  0  0  0  0  0  0
   10.8572    7.8859   36.3077 C   0  0  0  0  0  0  0  0  0  0  0  0
   11.1463    7.9031   34.9951 N   0  0  0  0  0  0  0  0  0  0  0  0
    9.9941    7.8337   34.3307 C   0  0  0  0  0  0  0  0  0  0  0  0
    9.6796    7.8146   32.9722 C   0  0  0  0  0  0  0  0  0  0  0  0
   10.7390    7.8783   32.0532 N   0  0  0  0  0  0  0  0  0  0  0  0
    8.3812    7.7365   32.6459 N   0  0  0  0  0  0  0  0  0  0  0  0
    7.4047    7.6779   33.5830 C   0  0  0  0  0  0  0  0  0  0  0  0
    7.7046    7.6960   34.8947 N   0  0  0  0  0  0  0  0  0  0  0  0
    8.9936    7.7736   35.2694 C   0  0  0  0  0  0  0  0  0  0  0  0
    8.3212    6.3900   37.9784 C   0  0  2  0  0  0  0  0  0  0  0  0
    6.9714    6.5230   38.3122 O   0  0  0  0  0  0  0  0  0  0  0  0
    9.1292    5.8883   39.1812 C   0  0  2  0  0  0  0  0  0  0  0  0
    8.3875    5.0048   39.9559 O   0  0  0  0  0  0  0  0  0  0  0  0
  1  2  1  0
  2  3  1  0
  3  4  1  1
  3  5  1  0
  5  6  1  1
  5  7  1  0
  7  8  2  0
  7  9  1  0
  9 10  1  0
 10 11  2  0
 10 12  1  1
 10 13  1  0
 13 14  1  0
 15 14  1  1
 15 16  1  0
 16 17  1  0
 17 18  1  6
 18 19  1  0
 19 20  2  0
 20 21  1  0
 21 22  2  0
 22 23  1  0
 22 24  1  0
 24 25  2  0
 25 26  1  0
 26 27  2  0
 17 28  1  0
 28 29  1  1
 28 30  1  0
 30 31  1  1
 30 15  1  0
 27 18  1  0
 27 21  1  0
M  END
$$$$
