
     RDKit          3D

 31 33  0  0  0  0  0  0  0  0999 V2000
   11.9700    0.4378   44.6989 C   0  0  0  0  0  0  0  0  0  0  0  0
   11.6892    1.8965   44.8079 C   0  0  0  0  0  0  0  0  0  0  0  0
   12.3566    2.7761   43.8097 C   0  0  2  0  0  0  0  0  0  0  0  0
   13.8270    2.4386   43.6157 C   0  0  0  0  0  0  0  0  0  0  0  0
   12.0498    4.2233   43.8566 C   0  0  2  0  0  0  0  0  0  0  0  0
   10.6384    4.3502   44.2241 N   0  0  0  0  0  0  0  0  0  0  0  0
   12.2611    5.0020   42.6384 C   0  0  0  0  0  0  0  0  0  0  0  0
   11.4624    4.8975   41.6433 O   0  0  0  0  0  0  0  0  0  0  0  0
   13.2928    5.9026   42.4206 O   0  0  0  0  0  0  0  0  0  0  0  0
   13.3204    7.0274   41.1504 P   0  0  2  0  0  5  0  0  0  0  0  0
   14.5623    6.7434   40.3053 O   0  0  0  0  0  0  0  0  0  0  0  0
   13.4455    8.6166   41.6819 O   0  0  0  0  0  0  0  0  0  0  0  0
   11.9955    6.8559   40.1062 O   0  0  0  0  0  0  0  0  0  0  0  0
   10.9035    7.4439   40.7492 C   0  0  0  0  0  0  0  0  0  0  0  0
    9.7707    7.4855   39.7534 C   0  0  1  0  0  0  0  0  0  0  0  0
   10.0841    8.2993   38.6584 O   0  0  0  0  0  0  0  0  0  0  0  0
    9.1872    7.9939   37.6696 C   0  0  1  0  0  0  0  0  0  0  0  0
    9.7619    8.0476   36.3396 N   0  0  0  0  0  0  0  0  0  0  0  0
   11.0825    8.1634   36.1037 C   0  0  0  0  0  0  0  0  0  0  0  0
   11.3190    8.1876   34.7807 N   0  0  0  0  0  0  0  0  0  0  0  0
   10.1438    8.0868   34.1623 C   0  0  0  0  0  0  0  0  0  0  0  0
    9.7767    8.0585   32.8172 C   0  0  0  0  0  0  0  0  0  0  0  0
   10.7969    8.1501   31.8572 N   0  0  0  0  0  0  0  0  0  0  0  0
    8.4689    7.9452   32.5424 N   0  0  0  0  0  0  0  0  0  0  0  0
    7.5321    7.8609   33.5172 C   0  0  0  0  0  0  0  0  0  0  0  0
    7.8829    7.8879   34.8160 N   0  0  0  0  0  0  0  0  0  0  0  0
    9.1831    8.0004   35.1397 C   0  0  0  0  0  0  0  0  0  0  0  0
    8.6964    6.5884   37.8896 C   0  0  2  0  0  0  0  0  0  0  0  0
    7.3550    6.6507   38.2738 O   0  0  0  0  0  0  0  0  0  0  0  0
    9.5765    6.1500   39.0662 C   0  0  2  0  0  0  0  0  0  0  0  0
    8.9157    5.2377   39.8799 O   0  0  0  0  0  0  0  0  0  0  0  0
  1  2  1  0
  2  3  1  0
  3  4  1  1
  3  5  1  0
  5  6  1  6
  5  7  1  0
  7  8  2  0
  7  9  1  0
  9 10  1  0
 10 11  2  0
 10 12  1  1
 10 13  1  0
 13 14  1  0
 15 14  1  1
 15 16  1  0
 16 17  1  0
 17 18  1  6
 18 19  1  0
 19 20  2  0
 20 21  1  0
 21 22  2  0
 22 23  1  0
 22 24  1  0
 24 25  2  0
 25 26  1  0
 26 27  2  0
 17 28  1  0
 28 29  1  1
 28 30  1  0
 30 31  1  1
 30 15  1  0
 27 18  1  0
 27 21  1  0
M  END
$$$$
