
     RDKit          3D

 31 33  0  0  0  0  0  0  0  0999 V2000
    8.2550    3.4595   45.5688 C   0  0  0  0  0  0  0  0  0  0  0  0
    9.7127    3.3891   45.2712 C   0  0  0  0  0  0  0  0  0  0  0  0
   10.1554    3.9872   43.9822 C   0  0  2  0  0  0  0  0  0  0  0  0
    9.2386    3.6324   42.8214 C   0  0  0  0  0  0  0  0  0  0  0  0
   11.6015    3.9492   43.6688 C   0  0  2  0  0  0  0  0  0  0  0  0
   12.3128    4.3687   44.8777 N   0  0  0  0  0  0  0  0  0  0  0  0
   12.0790    4.7788   42.5648 C   0  0  0  0  0  0  0  0  0  0  0  0
   12.4282    4.2544   41.4503 O   0  0  0  0  0  0  0  0  0  0  0  0
   12.2043    6.1597   42.5836 O   0  0  0  0  0  0  0  0  0  0  0  0
   12.7200    7.0855   41.2584 P   0  0  2  0  0  5  0  0  0  0  0  0
   13.9459    6.3961   40.6591 O   0  0  0  0  0  0  0  0  0  0  0  0
   13.1954    8.6392   41.6868 O   0  0  0  0  0  0  0  0  0  0  0  0
   11.5634    7.1416   40.0197 O   0  0  0  0  0  0  0  0  0  0  0  0
   10.3319    7.3771   40.6359 C   0  0  0  0  0  0  0  0  0  0  0  0
    9.2829    7.3665   39.5514 C   0  0  1  0  0  0  0  0  0  0  0  0
    9.6509    8.1864   38.4782 O   0  0  0  0  0  0  0  0  0  0  0  0
    8.8503    7.8390   37.4228 C   0  0  1  0  0  0  0  0  0  0  0  0
    9.5284    7.9089   36.1433 N   0  0  0  0  0  0  0  0  0  0  0  0
   10.8361    8.2007   36.0090 C   0  0  0  0  0  0  0  0  0  0  0  0
   11.1841    8.1935   34.7107 N   0  0  0  0  0  0  0  0  0  0  0  0
   10.0940    7.8955   34.0060 C   0  0  0  0  0  0  0  0  0  0  0  0
    9.8558    7.7489   32.6397 C   0  0  0  0  0  0  0  0  0  0  0  0
   10.9351    7.9383   31.7621 N   0  0  0  0  0  0  0  0  0  0  0  0
    8.6061    7.4365   32.2668 N   0  0  0  0  0  0  0  0  0  0  0  0
    7.6067    7.2669   33.1655 C   0  0  0  0  0  0  0  0  0  0  0  0
    7.8331    7.4076   34.4844 N   0  0  0  0  0  0  0  0  0  0  0  0
    9.0711    7.7206   34.9054 C   0  0  0  0  0  0  0  0  0  0  0  0
    8.4007    6.4157   37.6148 C   0  0  2  0  0  0  0  0  0  0  0  0
    7.0311    6.4249   37.8887 O   0  0  0  0  0  0  0  0  0  0  0  0
    9.1995    6.0203   38.8625 C   0  0  2  0  0  0  0  0  0  0  0  0
    8.5124    5.0862   39.6281 O   0  0  0  0  0  0  0  0  0  0  0  0
  1  2  1  0
  2  3  1  0
  3  4  1  6
  3  5  1  0
  5  6  1  1
  5  7  1  0
  7  8  2  0
  7  9  1  0
  9 10  1  0
 10 11  2  0
 10 12  1  1
 10 13  1  0
 13 14  1  0
 15 14  1  1
 15 16  1  0
 16 17  1  0
 17 18  1  6
 18 19  1  0
 19 20  2  0
 20 21  1  0
 21 22  2  0
 22 23  1  0
 22 24  1  0
 24 25  2  0
 25 26  1  0
 26 27  2  0
 17 28  1  0
 28 29  1  1
 28 30  1  0
 30 31  1  1
 30 15  1  0
 27 18  1  0
 27 21  1  0
M  END
$$$$
