
     RDKit          3D

 31 33  0  0  0  0  0  0  0  0999 V2000
    8.6025    3.5645   45.9998 C   0  0  0  0  0  0  0  0  0  0  0  0
   10.0362    3.5816   45.5969 C   0  0  0  0  0  0  0  0  0  0  0  0
   10.3362    4.1072   44.2370 C   0  0  2  0  0  0  0  0  0  0  0  0
    9.3177    3.6670   43.1965 C   0  0  0  0  0  0  0  0  0  0  0  0
   11.7448    4.0743   43.7838 C   0  0  2  0  0  0  0  0  0  0  0  0
   12.5642    4.5573   44.8968 N   0  0  0  0  0  0  0  0  0  0  0  0
   12.0966    4.8594   42.6028 C   0  0  0  0  0  0  0  0  0  0  0  0
   11.9367    4.3845   41.4247 O   0  0  0  0  0  0  0  0  0  0  0  0
   12.6158    6.1453   42.6092 O   0  0  0  0  0  0  0  0  0  0  0  0
   12.8932    7.0654   41.2108 P   0  0  2  0  0  5  0  0  0  0  0  0
   14.1537    6.5206   40.5387 O   0  0  0  0  0  0  0  0  0  0  0  0
   13.1780    8.6889   41.5376 O   0  0  0  0  0  0  0  0  0  0  0  0
   11.6482    6.9012   40.0714 O   0  0  0  0  0  0  0  0  0  0  0  0
   10.4718    7.3065   40.7067 C   0  0  0  0  0  0  0  0  0  0  0  0
    9.3683    7.2460   39.6795 C   0  0  1  0  0  0  0  0  0  0  0  0
    9.6535    8.0592   38.5764 O   0  0  0  0  0  0  0  0  0  0  0  0
    8.8101    7.6702   37.5700 C   0  0  1  0  0  0  0  0  0  0  0  0
    9.4177    7.7400   36.2555 N   0  0  0  0  0  0  0  0  0  0  0  0
   10.7383    7.9086   36.0541 C   0  0  0  0  0  0  0  0  0  0  0  0
   11.0092    7.9352   34.7378 N   0  0  0  0  0  0  0  0  0  0  0  0
    9.8561    7.7828   34.0890 C   0  0  0  0  0  0  0  0  0  0  0  0
    9.5267    7.7319   32.7348 C   0  0  0  0  0  0  0  0  0  0  0  0
   10.5678    7.8600   31.8017 N   0  0  0  0  0  0  0  0  0  0  0  0
    8.2326    7.5636   32.4259 N   0  0  0  0  0  0  0  0  0  0  0  0
    7.2741    7.4462   33.3760 C   0  0  0  0  0  0  0  0  0  0  0  0
    7.5884    7.4949   34.6835 N   0  0  0  0  0  0  0  0  0  0  0  0
    8.8738    7.6624   35.0410 C   0  0  0  0  0  0  0  0  0  0  0  0
    8.4162    6.2371   37.8064 C   0  0  2  0  0  0  0  0  0  0  0  0
    7.0632    6.2087   38.1521 O   0  0  0  0  0  0  0  0  0  0  0  0
    9.2913    5.8869   39.0158 C   0  0  2  0  0  0  0  0  0  0  0  0
    8.6750    4.9447   39.8303 O   0  0  0  0  0  0  0  0  0  0  0  0
  1  2  1  0
  2  3  1  0
  3  4  1  6
  3  5  1  0
  5  6  1  1
  5  7  1  0
  7  8  2  0
  7  9  1  0
  9 10  1  0
 10 11  2  0
 10 12  1  1
 10 13  1  0
 13 14  1  0
 15 14  1  1
 15 16  1  0
 16 17  1  0
 17 18  1  6
 18 19  1  0
 19 20  2  0
 20 21  1  0
 21 22  2  0
 22 23  1  0
 22 24  1  0
 24 25  2  0
 25 26  1  0
 26 27  2  0
 17 28  1  0
 28 29  1  1
 28 30  1  0
 30 31  1  1
 30 15  1  0
 27 18  1  0
 27 21  1  0
M  END
$$$$
