
     RDKit          3D

 31 33  0  0  0  0  0  0  0  0999 V2000
   31.0917  -20.2374   36.0721 C   0  0  0  0  0  0  0  0  0  0  0  0
   30.1899  -20.6765   34.9710 C   0  0  0  0  0  0  0  0  0  0  0  0
   30.7360  -21.6958   34.0340 C   0  0  2  0  0  0  0  0  0  0  0  0
   32.1096  -21.3261   33.4951 C   0  0  0  0  0  0  0  0  0  0  0  0
   29.8101  -22.2764   33.0358 C   0  0  2  0  0  0  0  0  0  0  0  0
   30.1699  -23.6878   32.8879 N   0  0  0  0  0  0  0  0  0  0  0  0
   29.7917  -21.6828   31.7008 C   0  0  0  0  0  0  0  0  0  0  0  0
   28.9137  -22.0320   30.8370 O   0  0  0  0  0  0  0  0  0  0  0  0
   30.6711  -20.7197   31.2295 O   0  0  0  0  0  0  0  0  0  0  0  0
   30.4377  -19.8382   29.7985 P   0  0  2  0  0  5  0  0  0  0  0  0
   31.4801  -20.3124   28.7857 O   0  0  0  0  0  0  0  0  0  0  0  0
   30.6691  -18.1860   29.9988 O   0  0  0  0  0  0  0  0  0  0  0  0
   28.9270  -20.1421   29.0911 O   0  0  0  0  0  0  0  0  0  0  0  0
   27.9856  -19.4382   29.8459 C   0  0  0  0  0  0  0  0  0  0  0  0
   26.7397  -20.2871   29.9066 C   0  0  1  0  0  0  0  0  0  0  0  0
   26.4161  -20.8084   28.6484 O   0  0  0  0  0  0  0  0  0  0  0  0
   25.5239  -21.8256   28.8597 C   0  0  1  0  0  0  0  0  0  0  0  0
   25.6920  -22.9339   27.9402 N   0  0  0  0  0  0  0  0  0  0  0  0
   26.5934  -22.9408   26.9399 C   0  0  0  0  0  0  0  0  0  0  0  0
   26.5208  -24.0954   26.2555 N   0  0  0  0  0  0  0  0  0  0  0  0
   25.5674  -24.8352   26.8189 C   0  0  0  0  0  0  0  0  0  0  0  0
   25.0592  -26.1037   26.5404 C   0  0  0  0  0  0  0  0  0  0  0  0
   25.6134  -26.8095   25.4608 N   0  0  0  0  0  0  0  0  0  0  0  0
   24.0738  -26.5548   27.3304 N   0  0  0  0  0  0  0  0  0  0  0  0
   23.5819  -25.8227   28.3586 C   0  0  0  0  0  0  0  0  0  0  0  0
   24.0700  -24.5984   28.6300 N   0  0  0  0  0  0  0  0  0  0  0  0
   25.0589  -24.1046   27.8645 C   0  0  0  0  0  0  0  0  0  0  0  0
   25.7331  -22.3611   30.2504 C   0  0  2  0  0  0  0  0  0  0  0  0
   24.6209  -22.0160   31.0217 O   0  0  0  0  0  0  0  0  0  0  0  0
   26.9659  -21.5628   30.6909 C   0  0  2  0  0  0  0  0  0  0  0  0
   26.9597  -21.3381   32.0622 O   0  0  0  0  0  0  0  0  0  0  0  0
  1  2  1  0
  2  3  1  0
  3  4  1  6
  3  5  1  0
  5  6  1  6
  5  7  1  0
  7  8  2  0
  7  9  1  0
  9 10  1  0
 10 11  2  0
 10 12  1  1
 10 13  1  0
 13 14  1  0
 15 14  1  6
 15 16  1  0
 16 17  1  0
 17 18  1  6
 18 19  1  0
 19 20  2  0
 20 21  1  0
 21 22  2  0
 22 23  1  0
 22 24  1  0
 24 25  2  0
 25 26  1  0
 26 27  2  0
 17 28  1  0
 28 29  1  1
 28 30  1  0
 30 31  1  1
 30 15  1  0
 27 18  1  0
 27 21  1  0
M  END
$$$$
