
     RDKit          3D

 31 33  0  0  0  0  0  0  0  0999 V2000
   11.9089    0.7608   45.1436 C   0  0  0  0  0  0  0  0  0  0  0  0
   11.4183    2.1592   44.9950 C   0  0  0  0  0  0  0  0  0  0  0  0
   12.1801    3.0331   44.0615 C   0  0  2  0  0  0  0  0  0  0  0  0
   13.6807    2.9918   44.3068 C   0  0  0  0  0  0  0  0  0  0  0  0
   11.6313    4.3782   43.7786 C   0  0  2  0  0  0  0  0  0  0  0  0
   10.1766    4.2376   43.6909 N   0  0  0  0  0  0  0  0  0  0  0  0
   12.0837    5.0547   42.5651 C   0  0  0  0  0  0  0  0  0  0  0  0
   11.9271    4.5169   41.4139 O   0  0  0  0  0  0  0  0  0  0  0  0
   12.7020    6.2948   42.5107 O   0  0  0  0  0  0  0  0  0  0  0  0
   13.0993    7.0965   41.0689 P   0  0  2  0  0  5  0  0  0  0  0  0
   14.2915    6.3695   40.4465 O   0  0  0  0  0  0  0  0  0  0  0  0
   13.5730    8.6903   41.3118 O   0  0  0  0  0  0  0  0  0  0  0  0
   11.8535    7.0183   39.9213 O   0  0  0  0  0  0  0  0  0  0  0  0
   10.6787    7.3816   40.5843 C   0  0  0  0  0  0  0  0  0  0  0  0
    9.5547    7.2847   39.5824 C   0  0  1  0  0  0  0  0  0  0  0  0
    9.7539    8.1579   38.5066 O   0  0  0  0  0  0  0  0  0  0  0  0
    8.9123    7.7506   37.5060 C   0  0  1  0  0  0  0  0  0  0  0  0
    9.4781    7.9133   36.1811 N   0  0  0  0  0  0  0  0  0  0  0  0
   10.7734    8.2042   35.9556 C   0  0  0  0  0  0  0  0  0  0  0  0
   11.0076    8.2940   34.6351 N   0  0  0  0  0  0  0  0  0  0  0  0
    9.8564    8.0595   34.0077 C   0  0  0  0  0  0  0  0  0  0  0  0
    9.4989    8.0202   32.6604 C   0  0  0  0  0  0  0  0  0  0  0  0
   10.5008    8.2679   31.7087 N   0  0  0  0  0  0  0  0  0  0  0  0
    8.2172    7.7470   32.3754 N   0  0  0  0  0  0  0  0  0  0  0  0
    7.2969    7.5168   33.3425 C   0  0  0  0  0  0  0  0  0  0  0  0
    7.6386    7.5540   34.6434 N   0  0  0  0  0  0  0  0  0  0  0  0
    8.9128    7.8241   34.9772 C   0  0  0  0  0  0  0  0  0  0  0  0
    8.6237    6.2856   37.6935 C   0  0  2  0  0  0  0  0  0  0  0  0
    7.2856    6.1501   38.0704 O   0  0  0  0  0  0  0  0  0  0  0  0
    9.5529    5.9502   38.8663 C   0  0  2  0  0  0  0  0  0  0  0  0
    9.0245    4.9367   39.6566 O   0  0  0  0  0  0  0  0  0  0  0  0
  1  2  1  0
  2  3  1  0
  3  4  1  1
  3  5  1  0
  5  6  1  6
  5  7  1  0
  7  8  2  0
  7  9  1  0
  9 10  1  0
 10 11  2  0
 10 12  1  1
 10 13  1  0
 13 14  1  0
 15 14  1  1
 15 16  1  0
 16 17  1  0
 17 18  1  6
 18 19  1  0
 19 20  2  0
 20 21  1  0
 21 22  2  0
 22 23  1  0
 22 24  1  0
 24 25  2  0
 25 26  1  0
 26 27  2  0
 17 28  1  0
 28 29  1  1
 28 30  1  0
 30 31  1  1
 30 15  1  0
 27 18  1  0
 27 21  1  0
M  END
$$$$
