
     RDKit          3D

 31 33  0  0  0  0  0  0  0  0999 V2000
    8.8099    3.2301   45.9717 C   0  0  0  0  0  0  0  0  0  0  0  0
   10.2150    3.1937   45.4791 C   0  0  0  0  0  0  0  0  0  0  0  0
   10.4701    3.8273   44.1567 C   0  0  2  0  0  0  0  0  0  0  0  0
    9.3844    3.5210   43.1364 C   0  0  0  0  0  0  0  0  0  0  0  0
   11.8523    3.7820   43.6292 C   0  0  2  0  0  0  0  0  0  0  0  0
   12.7435    4.1499   44.7309 N   0  0  0  0  0  0  0  0  0  0  0  0
   12.1744    4.6434   42.4938 C   0  0  0  0  0  0  0  0  0  0  0  0
   11.9310    4.2696   41.2938 O   0  0  0  0  0  0  0  0  0  0  0  0
   12.7489    5.9033   42.5693 O   0  0  0  0  0  0  0  0  0  0  0  0
   12.9750    6.9264   41.2346 P   0  0  2  0  0  5  0  0  0  0  0  0
   14.2352    6.4639   40.5029 O   0  0  0  0  0  0  0  0  0  0  0  0
   13.2251    8.5299   41.6702 O   0  0  0  0  0  0  0  0  0  0  0  0
   11.7120    6.8096   40.1092 O   0  0  0  0  0  0  0  0  0  0  0  0
   10.5793    7.3472   40.7254 C   0  0  0  0  0  0  0  0  0  0  0  0
    9.4682    7.3313   39.7048 C   0  0  1  0  0  0  0  0  0  0  0  0
    9.7367    8.2057   38.6452 O   0  0  0  0  0  0  0  0  0  0  0  0
    8.8890    7.8632   37.6257 C   0  0  1  0  0  0  0  0  0  0  0  0
    9.4852    8.0101   36.3123 N   0  0  0  0  0  0  0  0  0  0  0  0
   10.8072    8.1646   36.1083 C   0  0  0  0  0  0  0  0  0  0  0  0
   11.0659    8.2755   34.7939 N   0  0  0  0  0  0  0  0  0  0  0  0
    9.9036    8.1918   34.1490 C   0  0  0  0  0  0  0  0  0  0  0  0
    9.5602    8.2405   32.7982 C   0  0  0  0  0  0  0  0  0  0  0  0
   10.5948    8.4104   31.8645 N   0  0  0  0  0  0  0  0  0  0  0  0
    8.2598    8.1205   32.4930 N   0  0  0  0  0  0  0  0  0  0  0  0
    7.3082    7.9585   33.4434 C   0  0  0  0  0  0  0  0  0  0  0  0
    7.6361    7.9111   34.7476 N   0  0  0  0  0  0  0  0  0  0  0  0
    8.9281    8.0271   35.1014 C   0  0  0  0  0  0  0  0  0  0  0  0
    8.5108    6.4156   37.7870 C   0  0  2  0  0  0  0  0  0  0  0  0
    7.1610    6.3550   38.1409 O   0  0  0  0  0  0  0  0  0  0  0  0
    9.3990    6.0093   38.9691 C   0  0  2  0  0  0  0  0  0  0  0  0
    8.7983    5.0183   39.7361 O   0  0  0  0  0  0  0  0  0  0  0  0
  1  2  1  0
  2  3  1  0
  3  4  1  6
  3  5  1  0
  5  6  1  1
  5  7  1  0
  7  8  2  0
  7  9  1  0
  9 10  1  0
 10 11  2  0
 10 12  1  1
 10 13  1  0
 13 14  1  0
 15 14  1  1
 15 16  1  0
 16 17  1  0
 17 18  1  6
 18 19  1  0
 19 20  2  0
 20 21  1  0
 21 22  2  0
 22 23  1  0
 22 24  1  0
 24 25  2  0
 25 26  1  0
 26 27  2  0
 17 28  1  0
 28 29  1  1
 28 30  1  0
 30 31  1  1
 30 15  1  0
 27 18  1  0
 27 21  1  0
M  END
$$$$
