
     RDKit          3D

 31 33  0  0  0  0  0  0  0  0999 V2000
    8.6852    3.6703   46.4257 C   0  0  0  0  0  0  0  0  0  0  0  0
   10.0259    3.5323   45.7918 C   0  0  0  0  0  0  0  0  0  0  0  0
   10.2562    4.3204   44.5503 C   0  0  2  0  0  0  0  0  0  0  0  0
    9.0695    4.2834   43.5993 C   0  0  0  0  0  0  0  0  0  0  0  0
   11.5806    4.2047   43.8997 C   0  0  2  0  0  0  0  0  0  0  0  0
   12.5687    4.7311   44.8432 N   0  0  0  0  0  0  0  0  0  0  0  0
   11.7742    4.8946   42.6264 C   0  0  0  0  0  0  0  0  0  0  0  0
   11.4152    4.3535   41.5230 O   0  0  0  0  0  0  0  0  0  0  0  0
   12.3365    6.1516   42.4626 O   0  0  0  0  0  0  0  0  0  0  0  0
   12.6854    6.8479   40.9550 P   0  0  2  0  0  5  0  0  0  0  0  0
   13.0277    5.7143   39.9879 O   0  0  0  0  0  0  0  0  0  0  0  0
   14.0166    7.8724   40.9960 O   0  0  0  0  0  0  0  0  0  0  0  0
   11.3466    7.6446   40.2856 O   0  0  0  0  0  0  0  0  0  0  0  0
   10.2116    6.9834   40.7612 C   0  0  0  0  0  0  0  0  0  0  0  0
    9.2004    6.9745   39.6414 C   0  0  1  0  0  0  0  0  0  0  0  0
    9.4790    7.9674   38.6949 O   0  0  0  0  0  0  0  0  0  0  0  0
    8.7590    7.6564   37.5723 C   0  0  1  0  0  0  0  0  0  0  0  0
    9.4520    7.9799   36.3405 N   0  0  0  0  0  0  0  0  0  0  0  0
   10.7283    8.4067   36.2947 C   0  0  0  0  0  0  0  0  0  0  0  0
   11.1004    8.6269   35.0220 N   0  0  0  0  0  0  0  0  0  0  0  0
   10.0575    8.3401   34.2449 C   0  0  0  0  0  0  0  0  0  0  0  0
    9.8609    8.3797   32.8648 C   0  0  0  0  0  0  0  0  0  0  0  0
   10.9340    8.7968   32.0614 N   0  0  0  0  0  0  0  0  0  0  0  0
    8.6541    8.0141   32.4082 N   0  0  0  0  0  0  0  0  0  0  0  0
    7.6582    7.6207   33.2379 C   0  0  0  0  0  0  0  0  0  0  0  0
    7.8446    7.5812   34.5700 N   0  0  0  0  0  0  0  0  0  0  0  0
    9.0388    7.9391   35.0738 C   0  0  0  0  0  0  0  0  0  0  0  0
    8.5031    6.1735   37.5666 C   0  0  2  0  0  0  0  0  0  0  0  0
    7.1387    5.9663   37.7826 O   0  0  0  0  0  0  0  0  0  0  0  0
    9.3178    5.7294   38.7873 C   0  0  2  0  0  0  0  0  0  0  0  0
    8.7461    4.6217   39.4014 O   0  0  0  0  0  0  0  0  0  0  0  0
  1  2  1  0
  2  3  1  0
  3  4  1  6
  3  5  1  0
  5  6  1  1
  5  7  1  0
  7  8  2  0
  7  9  1  0
  9 10  1  0
 10 11  2  0
 10 12  1  1
 10 13  1  0
 13 14  1  0
 15 14  1  1
 15 16  1  0
 16 17  1  0
 17 18  1  6
 18 19  1  0
 19 20  2  0
 20 21  1  0
 21 22  2  0
 22 23  1  0
 22 24  1  0
 24 25  2  0
 25 26  1  0
 26 27  2  0
 17 28  1  0
 28 29  1  1
 28 30  1  0
 30 31  1  1
 30 15  1  0
 27 18  1  0
 27 21  1  0
M  END
$$$$
