
     RDKit          3D

 31 33  0  0  0  0  0  0  0  0999 V2000
    8.2014    3.3127   45.3169 C   0  0  0  0  0  0  0  0  0  0  0  0
    9.6774    3.4461   45.1688 C   0  0  0  0  0  0  0  0  0  0  0  0
   10.1708    3.9147   43.8450 C   0  0  2  0  0  0  0  0  0  0  0  0
    9.3974    3.3145   42.6809 C   0  0  0  0  0  0  0  0  0  0  0  0
   11.6355    3.9923   43.6468 C   0  0  2  0  0  0  0  0  0  0  0  0
   12.2076    4.5263   44.8841 N   0  0  0  0  0  0  0  0  0  0  0  0
   12.1288    4.8119   42.5422 C   0  0  0  0  0  0  0  0  0  0  0  0
   12.2090    4.3383   41.3555 O   0  0  0  0  0  0  0  0  0  0  0  0
   12.5456    6.1313   42.6349 O   0  0  0  0  0  0  0  0  0  0  0  0
   12.9322    7.1021   41.2979 P   0  0  2  0  0  5  0  0  0  0  0  0
   14.1897    6.5218   40.6505 O   0  0  0  0  0  0  0  0  0  0  0  0
   13.2888    8.6893   41.7190 O   0  0  0  0  0  0  0  0  0  0  0  0
   11.7307    7.0635   40.1021 O   0  0  0  0  0  0  0  0  0  0  0  0
   10.5350    7.4244   40.7278 C   0  0  0  0  0  0  0  0  0  0  0  0
    9.4541    7.3888   39.6757 C   0  0  1  0  0  0  0  0  0  0  0  0
    9.7839    8.1931   38.5785 O   0  0  0  0  0  0  0  0  0  0  0  0
    8.9547    7.8227   37.5535 C   0  0  1  0  0  0  0  0  0  0  0  0
    9.5937    7.8758   36.2532 N   0  0  0  0  0  0  0  0  0  0  0  0
   10.9134    8.0803   36.0803 C   0  0  0  0  0  0  0  0  0  0  0  0
   11.2173    8.0795   34.7710 N   0  0  0  0  0  0  0  0  0  0  0  0
   10.0866    7.8734   34.0979 C   0  0  0  0  0  0  0  0  0  0  0  0
    9.7942    7.7754   32.7379 C   0  0  0  0  0  0  0  0  0  0  0  0
   10.8547    7.9107   31.8279 N   0  0  0  0  0  0  0  0  0  0  0  0
    8.5143    7.5581   32.4016 N   0  0  0  0  0  0  0  0  0  0  0  0
    7.5355    7.4366   33.3302 C   0  0  0  0  0  0  0  0  0  0  0  0
    7.8142    7.5306   34.6433 N   0  0  0  0  0  0  0  0  0  0  0  0
    9.0841    7.7482   35.0280 C   0  0  0  0  0  0  0  0  0  0  0  0
    8.5213    6.3999   37.7823 C   0  0  2  0  0  0  0  0  0  0  0  0
    7.1604    6.4045   38.0970 O   0  0  0  0  0  0  0  0  0  0  0  0
    9.3598    6.0308   39.0119 C   0  0  2  0  0  0  0  0  0  0  0  0
    8.7026    5.1049   39.8131 O   0  0  0  0  0  0  0  0  0  0  0  0
  1  2  1  0
  2  3  1  0
  3  4  1  6
  3  5  1  0
  5  6  1  1
  5  7  1  0
  7  8  2  0
  7  9  1  0
  9 10  1  0
 10 11  2  0
 10 12  1  1
 10 13  1  0
 13 14  1  0
 15 14  1  1
 15 16  1  0
 16 17  1  0
 17 18  1  6
 18 19  1  0
 19 20  2  0
 20 21  1  0
 21 22  2  0
 22 23  1  0
 22 24  1  0
 24 25  2  0
 25 26  1  0
 26 27  2  0
 17 28  1  0
 28 29  1  1
 28 30  1  0
 30 31  1  1
 30 15  1  0
 27 18  1  0
 27 21  1  0
M  END
$$$$
