
     RDKit          3D

 31 33  0  0  0  0  0  0  0  0999 V2000
   11.0128    0.7528   44.7682 C   0  0  0  0  0  0  0  0  0  0  0  0
   10.8209    2.2287   44.7123 C   0  0  0  0  0  0  0  0  0  0  0  0
   11.7676    2.9878   43.8504 C   0  0  2  0  0  0  0  0  0  0  0  0
   13.2173    2.5806   44.0653 C   0  0  0  0  0  0  0  0  0  0  0  0
   11.5442    4.4434   43.7020 C   0  0  2  0  0  0  0  0  0  0  0  0
   10.0988    4.6645   43.7739 N   0  0  0  0  0  0  0  0  0  0  0  0
   12.0289    5.0838   42.4813 C   0  0  0  0  0  0  0  0  0  0  0  0
   11.4742    4.8518   41.3511 O   0  0  0  0  0  0  0  0  0  0  0  0
   13.0887    5.9745   42.3989 O   0  0  0  0  0  0  0  0  0  0  0  0
   13.2195    7.1899   41.2221 P   0  0  2  0  0  5  0  0  0  0  0  0
   14.4974    6.9287   40.4246 O   0  0  0  0  0  0  0  0  0  0  0  0
   13.3616    8.7295   41.8800 O   0  0  0  0  0  0  0  0  0  0  0  0
   11.9499    7.1417   40.0992 O   0  0  0  0  0  0  0  0  0  0  0  0
   10.8349    7.6927   40.7356 C   0  0  0  0  0  0  0  0  0  0  0  0
    9.7032    7.6824   39.7377 C   0  0  1  0  0  0  0  0  0  0  0  0
   10.0692    8.3174   38.5451 O   0  0  0  0  0  0  0  0  0  0  0  0
    9.1477    7.9481   37.6018 C   0  0  1  0  0  0  0  0  0  0  0  0
    9.7183    7.7816   36.2794 N   0  0  0  0  0  0  0  0  0  0  0  0
   11.0427    7.7692   36.0365 C   0  0  0  0  0  0  0  0  0  0  0  0
   11.2738    7.5990   34.7233 N   0  0  0  0  0  0  0  0  0  0  0  0
   10.0913    7.5013   34.1183 C   0  0  0  0  0  0  0  0  0  0  0  0
    9.7165    7.3197   32.7874 C   0  0  0  0  0  0  0  0  0  0  0  0
   10.7360    7.2081   31.8286 N   0  0  0  0  0  0  0  0  0  0  0  0
    8.4027    7.2653   32.5239 N   0  0  0  0  0  0  0  0  0  0  0  0
    7.4670    7.3800   33.4968 C   0  0  0  0  0  0  0  0  0  0  0  0
    7.8252    7.5553   34.7819 N   0  0  0  0  0  0  0  0  0  0  0  0
    9.1317    7.6160   35.0939 C   0  0  0  0  0  0  0  0  0  0  0  0
    8.5578    6.6238   38.0056 C   0  0  2  0  0  0  0  0  0  0  0  0
    7.2263    6.8338   38.3715 O   0  0  0  0  0  0  0  0  0  0  0  0
    9.4097    6.2844   39.2345 C   0  0  2  0  0  0  0  0  0  0  0  0
    8.6887    5.5394   40.1598 O   0  0  0  0  0  0  0  0  0  0  0  0
  1  2  1  0
  2  3  1  0
  3  4  1  1
  3  5  1  0
  5  6  1  6
  5  7  1  0
  7  8  2  0
  7  9  1  0
  9 10  1  0
 10 11  2  0
 10 12  1  1
 10 13  1  0
 13 14  1  0
 15 14  1  1
 15 16  1  0
 16 17  1  0
 17 18  1  6
 18 19  1  0
 19 20  2  0
 20 21  1  0
 21 22  2  0
 22 23  1  0
 22 24  1  0
 24 25  2  0
 25 26  1  0
 26 27  2  0
 17 28  1  0
 28 29  1  1
 28 30  1  0
 30 31  1  1
 30 15  1  0
 27 18  1  0
 27 21  1  0
M  END
$$$$
