
     RDKit          3D

 31 33  0  0  0  0  0  0  0  0999 V2000
    8.2843    3.2981   45.3273 C   0  0  0  0  0  0  0  0  0  0  0  0
    9.7162    3.7081   45.3270 C   0  0  0  0  0  0  0  0  0  0  0  0
   10.5352    3.2539   44.1700 C   0  0  2  0  0  0  0  0  0  0  0  0
   10.5487    1.7409   44.0145 C   0  0  0  0  0  0  0  0  0  0  0  0
   11.8415    3.9149   43.9524 C   0  0  2  0  0  0  0  0  0  0  0  0
   12.2213    4.5409   45.2202 N   0  0  0  0  0  0  0  0  0  0  0  0
   11.9195    4.9389   42.9131 C   0  0  0  0  0  0  0  0  0  0  0  0
   10.8608    5.4929   42.4536 O   0  0  0  0  0  0  0  0  0  0  0  0
   13.0841    5.4142   42.3290 O   0  0  0  0  0  0  0  0  0  0  0  0
   13.1226    6.5869   41.1032 P   0  0  2  0  0  5  0  0  0  0  0  0
   14.3766    6.3407   40.2641 O   0  0  0  0  0  0  0  0  0  0  0  0
   13.2335    8.1551   41.6967 O   0  0  0  0  0  0  0  0  0  0  0  0
   11.8120    6.4500   40.0361 O   0  0  0  0  0  0  0  0  0  0  0  0
   10.7189    7.0454   40.6703 C   0  0  0  0  0  0  0  0  0  0  0  0
    9.6190    7.1623   39.6441 C   0  0  1  0  0  0  0  0  0  0  0  0
    9.9793    8.0312   38.6074 O   0  0  0  0  0  0  0  0  0  0  0  0
    9.1097    7.7974   37.5757 C   0  0  1  0  0  0  0  0  0  0  0  0
    9.7270    7.9163   36.2692 N   0  0  0  0  0  0  0  0  0  0  0  0
   11.0498    8.0869   36.0840 C   0  0  0  0  0  0  0  0  0  0  0  0
   11.3302    8.1642   34.7717 N   0  0  0  0  0  0  0  0  0  0  0  0
   10.1813    8.0426   34.1092 C   0  0  0  0  0  0  0  0  0  0  0  0
    9.8615    8.0466   32.7518 C   0  0  0  0  0  0  0  0  0  0  0  0
   10.9098    8.2068   31.8318 N   0  0  0  0  0  0  0  0  0  0  0  0
    8.5689    7.8962   32.4274 N   0  0  0  0  0  0  0  0  0  0  0  0
    7.6031    7.7457   33.3653 C   0  0  0  0  0  0  0  0  0  0  0  0
    7.9082    7.7414   34.6759 N   0  0  0  0  0  0  0  0  0  0  0  0
    9.1916    7.8891   35.0487 C   0  0  0  0  0  0  0  0  0  0  0  0
    8.5909    6.3902   37.7000 C   0  0  2  0  0  0  0  0  0  0  0  0
    7.2390    6.4535   38.0456 O   0  0  0  0  0  0  0  0  0  0  0  0
    9.4265    5.8712   38.8763 C   0  0  2  0  0  0  0  0  0  0  0  0
    8.7264    4.9258   39.6159 O   0  0  0  0  0  0  0  0  0  0  0  0
  1  2  1  0
  2  3  1  0
  3  4  1  1
  3  5  1  0
  5  6  1  1
  5  7  1  0
  7  8  2  0
  7  9  1  0
  9 10  1  0
 10 11  2  0
 10 12  1  1
 10 13  1  0
 13 14  1  0
 15 14  1  1
 15 16  1  0
 16 17  1  0
 17 18  1  6
 18 19  1  0
 19 20  2  0
 20 21  1  0
 21 22  2  0
 22 23  1  0
 22 24  1  0
 24 25  2  0
 25 26  1  0
 26 27  2  0
 17 28  1  0
 28 29  1  1
 28 30  1  0
 30 31  1  1
 30 15  1  0
 27 18  1  0
 27 21  1  0
M  END
$$$$
