
     RDKit          3D

 31 33  0  0  0  0  0  0  0  0999 V2000
    8.5596    3.4924   46.0346 C   0  0  0  0  0  0  0  0  0  0  0  0
   10.0090    3.6157   45.7146 C   0  0  0  0  0  0  0  0  0  0  0  0
   10.3471    4.0898   44.3448 C   0  0  2  0  0  0  0  0  0  0  0  0
    9.4757    3.4579   43.2700 C   0  0  0  0  0  0  0  0  0  0  0  0
   11.7801    4.2106   43.9946 C   0  0  2  0  0  0  0  0  0  0  0  0
   12.4467    4.8477   45.1318 N   0  0  0  0  0  0  0  0  0  0  0  0
   12.1244    4.9732   42.7967 C   0  0  0  0  0  0  0  0  0  0  0  0
   12.2269    4.3987   41.6572 O   0  0  0  0  0  0  0  0  0  0  0  0
   12.3668    6.3377   42.7461 O   0  0  0  0  0  0  0  0  0  0  0  0
   12.8392    7.1678   41.3435 P   0  0  2  0  0  5  0  0  0  0  0  0
   14.0706    6.4603   40.7775 O   0  0  0  0  0  0  0  0  0  0  0  0
   13.2855    8.7602   41.6408 O   0  0  0  0  0  0  0  0  0  0  0  0
   11.6613    7.1015   40.1255 O   0  0  0  0  0  0  0  0  0  0  0  0
   10.4277    7.2852   40.7548 C   0  0  0  0  0  0  0  0  0  0  0  0
    9.3726    7.2762   39.6762 C   0  0  1  0  0  0  0  0  0  0  0  0
    9.7406    8.0876   38.5964 O   0  0  0  0  0  0  0  0  0  0  0  0
    8.9317    7.7401   37.5475 C   0  0  1  0  0  0  0  0  0  0  0  0
    9.6032    7.7981   36.2638 N   0  0  0  0  0  0  0  0  0  0  0  0
   10.9322    7.9653   36.1260 C   0  0  0  0  0  0  0  0  0  0  0  0
   11.2674    7.9799   34.8244 N   0  0  0  0  0  0  0  0  0  0  0  0
   10.1476    7.8213   34.1211 C   0  0  0  0  0  0  0  0  0  0  0  0
    9.8852    7.7579   32.7529 C   0  0  0  0  0  0  0  0  0  0  0  0
   10.9709    7.8778   31.8710 N   0  0  0  0  0  0  0  0  0  0  0  0
    8.6077    7.5863   32.3824 N   0  0  0  0  0  0  0  0  0  0  0  0
    7.6037    7.4773   33.2852 C   0  0  0  0  0  0  0  0  0  0  0  0
    7.8534    7.5380   34.6061 N   0  0  0  0  0  0  0  0  0  0  0  0
    9.1196    7.7093   35.0247 C   0  0  0  0  0  0  0  0  0  0  0  0
    8.4729    6.3212   37.7498 C   0  0  2  0  0  0  0  0  0  0  0  0
    7.1050    6.3418   38.0311 O   0  0  0  0  0  0  0  0  0  0  0  0
    9.2757    5.9269   38.9953 C   0  0  2  0  0  0  0  0  0  0  0  0
    8.5862    5.0020   39.7698 O   0  0  0  0  0  0  0  0  0  0  0  0
  1  2  1  0
  2  3  1  0
  3  4  1  6
  3  5  1  0
  5  6  1  1
  5  7  1  0
  7  8  2  0
  7  9  1  0
  9 10  1  0
 10 11  2  0
 10 12  1  1
 10 13  1  0
 13 14  1  0
 15 14  1  1
 15 16  1  0
 16 17  1  0
 17 18  1  6
 18 19  1  0
 19 20  2  0
 20 21  1  0
 21 22  2  0
 22 23  1  0
 22 24  1  0
 24 25  2  0
 25 26  1  0
 26 27  2  0
 17 28  1  0
 28 29  1  1
 28 30  1  0
 30 31  1  1
 30 15  1  0
 27 18  1  0
 27 21  1  0
M  END
$$$$
