
     RDKit          3D

 31 33  0  0  0  0  0  0  0  0999 V2000
   32.4740  -20.2511   36.1500 C   0  0  0  0  0  0  0  0  0  0  0  0
   31.3623  -21.0473   35.5594 C   0  0  0  0  0  0  0  0  0  0  0  0
   31.1244  -20.8727   34.1006 C   0  0  2  0  0  0  0  0  0  0  0  0
   31.1740  -19.4161   33.6649 C   0  0  0  0  0  0  0  0  0  0  0  0
   30.0443  -21.6725   33.4808 C   0  0  2  0  0  0  0  0  0  0  0  0
   30.3794  -23.0818   33.6928 N   0  0  0  0  0  0  0  0  0  0  0  0
   29.7961  -21.4873   32.0528 C   0  0  0  0  0  0  0  0  0  0  0  0
   29.6777  -20.3152   31.5516 O   0  0  0  0  0  0  0  0  0  0  0  0
   29.6677  -22.5000   31.1142 O   0  0  0  0  0  0  0  0  0  0  0  0
   29.3726  -22.2351   29.4643 P   0  0  2  0  0  5  0  0  0  0  0  0
   27.9728  -21.6343   29.3335 O   0  0  0  0  0  0  0  0  0  0  0  0
   29.3820  -23.6507   28.5590 O   0  0  0  0  0  0  0  0  0  0  0  0
   30.4343  -21.0965   28.7924 O   0  0  0  0  0  0  0  0  0  0  0  0
   31.2217  -21.7850   27.8663 C   0  0  0  0  0  0  0  0  0  0  0  0
   30.2977  -22.2912   26.7862 C   0  0  1  0  0  0  0  0  0  0  0  0
   29.4822  -23.3269   27.2571 O   0  0  0  0  0  0  0  0  0  0  0  0
   28.4605  -23.4663   26.3558 C   0  0  1  0  0  0  0  0  0  0  0  0
   27.1954  -23.8112   26.9743 N   0  0  0  0  0  0  0  0  0  0  0  0
   26.6669  -23.1375   28.0135 C   0  0  0  0  0  0  0  0  0  0  0  0
   25.4921  -23.6828   28.3731 N   0  0  0  0  0  0  0  0  0  0  0  0
   25.2638  -24.7130   27.5605 C   0  0  0  0  0  0  0  0  0  0  0  0
   24.2210  -25.6338   27.4627 C   0  0  0  0  0  0  0  0  0  0  0  0
   23.1567  -25.5178   28.3709 N   0  0  0  0  0  0  0  0  0  0  0  0
   24.3155  -26.5653   26.5025 N   0  0  0  0  0  0  0  0  0  0  0  0
   25.3714  -26.6233   25.6559 C   0  0  0  0  0  0  0  0  0  0  0  0
   26.3793  -25.7364   25.7476 N   0  0  0  0  0  0  0  0  0  0  0  0
   26.3279  -24.7841   26.6954 C   0  0  0  0  0  0  0  0  0  0  0  0
   28.2694  -22.1531   25.6461 C   0  0  2  0  0  0  0  0  0  0  0  0
   28.6746  -22.3124   24.3190 O   0  0  0  0  0  0  0  0  0  0  0  0
   29.2547  -21.2598   26.4093 C   0  0  2  0  0  0  0  0  0  0  0  0
   29.7774  -20.2673   25.5892 O   0  0  0  0  0  0  0  0  0  0  0  0
  1  2  1  0
  2  3  1  0
  3  4  1  1
  3  5  1  0
  5  6  1  6
  5  7  1  0
  7  8  2  0
  7  9  1  0
  9 10  1  0
 10 11  2  0
 10 12  1  6
 10 13  1  0
 13 14  1  0
 15 14  1  1
 15 16  1  0
 16 17  1  0
 17 18  1  1
 18 19  1  0
 19 20  2  0
 20 21  1  0
 21 22  2  0
 22 23  1  0
 22 24  1  0
 24 25  2  0
 25 26  1  0
 26 27  2  0
 17 28  1  0
 28 29  1  6
 28 30  1  0
 30 31  1  6
 30 15  1  0
 27 18  1  0
 27 21  1  0
M  END
$$$$
