7D5C_GV6
     RDKit          3D

 31 33  0  0  0  0  0  0  0  0999 V2000
    8.8153    3.3921   45.1868 C   0  0  0  0  0  0  0  0  0  0  0  0
   10.3201    3.5530   44.9924 C   0  0  0  0  0  0  0  0  0  0  0  0
   10.5943    4.4762   43.7893 C   0  0  2  0  0  0  0  0  0  0  0  0
    9.7480    3.9549   42.6775 C   0  0  0  0  0  0  0  0  0  0  0  0
   12.0873    4.5037   43.4459 C   0  0  2  0  0  0  0  0  0  0  0  0
   12.8038    5.1139   44.5895 N   0  0  0  0  0  0  0  0  0  0  0  0
   12.3852    5.2568   42.1075 C   0  0  0  0  0  0  0  0  0  0  0  0
   12.5225    4.5687   41.0918 O   0  0  0  0  0  0  0  0  0  0  0  0
   12.5633    6.5887   42.1768 O   0  0  0  0  0  0  0  0  0  0  0  0
   12.8483    7.3232   40.7849 P   0  0  2  0  0  5  0  0  0  0  0  0
   14.0930    6.9140   40.0885 O   0  0  0  0  0  0  0  0  0  0  0  0
   13.1863    8.8176   41.1861 O   0  0  0  0  0  0  0  0  0  0  0  0
   11.5412    7.1901   39.8218 O   0  0  0  0  0  0  0  0  0  0  0  0
   10.3420    7.4738   40.5596 C   0  0  0  0  0  0  0  0  0  0  0  0
    9.0908    7.3312   39.6595 C   0  0  1  0  0  0  0  0  0  0  0  0
    9.0370    7.9553   38.3624 O   0  0  0  0  0  0  0  0  0  0  0  0
    8.3564    7.0885   37.4503 C   0  0  1  0  0  0  0  0  0  0  0  0
    9.3109    6.7561   36.3944 N   0  0  0  0  0  0  0  0  0  0  0  0
   10.6949    6.6213   36.4714 C   0  0  0  0  0  0  0  0  0  0  0  0
   11.2641    6.8304   35.2916 N   0  0  0  0  0  0  0  0  0  0  0  0
   10.1872    7.0898   34.4339 C   0  0  0  0  0  0  0  0  0  0  0  0
   10.0372    7.5435   33.1486 C   0  0  0  0  0  0  0  0  0  0  0  0
   11.0954    7.9317   32.3967 N   0  0  0  0  0  0  0  0  0  0  0  0
    8.8774    7.7661   32.5726 N   0  0  0  0  0  0  0  0  0  0  0  0
    7.7758    7.4888   33.2916 C   0  0  0  0  0  0  0  0  0  0  0  0
    7.8112    7.1569   34.5691 N   0  0  0  0  0  0  0  0  0  0  0  0
    9.0056    6.9542   35.0969 C   0  0  0  0  0  0  0  0  0  0  0  0
    7.8701    5.8983   38.2524 C   0  0  2  0  0  0  0  0  0  0  0  0
    6.5583    6.2191   38.7678 O   0  0  0  0  0  0  0  0  0  0  0  0
    8.9294    5.8938   39.3208 C   0  0  2  0  0  0  0  0  0  0  0  0
    8.6066    5.2996   40.5288 O   0  0  0  0  0  0  0  0  0  0  0  0
  1  2  1  0
  2  3  1  0
  3  4  1  6
  3  5  1  0
  5  6  1  1
  5  7  1  0
  7  8  2  0
  7  9  1  0
 10  9  1  0
 10 11  2  0
 10 12  1  1
 10 13  1  0
 13 14  1  0
 15 14  1  6
 15 16  1  0
 16 17  1  0
 17 18  1  6
 18 19  1  0
 19 20  2  0
 20 21  1  0
 21 22  2  0
 22 23  1  0
 22 24  1  0
 24 25  2  0
 25 26  1  0
 26 27  2  0
 17 28  1  0
 28 29  1  1
 28 30  1  0
 30 31  1  1
 30 15  1  0
 27 18  1  0
 27 21  1  0
M  END
