
     RDKit          3D

 31 33  0  0  0  0  0  0  0  0999 V2000
    8.3391    3.6199   45.8642 C   0  0  0  0  0  0  0  0  0  0  0  0
    9.7870    3.6470   45.5160 C   0  0  0  0  0  0  0  0  0  0  0  0
   10.1376    4.2094   44.1833 C   0  0  2  0  0  0  0  0  0  0  0  0
    9.2000    3.7421   43.0805 C   0  0  0  0  0  0  0  0  0  0  0  0
   11.5692    4.2481   43.8098 C   0  0  2  0  0  0  0  0  0  0  0  0
   12.2888    4.8513   44.9330 N   0  0  0  0  0  0  0  0  0  0  0  0
   11.9364    4.9853   42.6028 C   0  0  0  0  0  0  0  0  0  0  0  0
   11.9530    4.4099   41.4593 O   0  0  0  0  0  0  0  0  0  0  0  0
   12.2903    6.3250   42.5472 O   0  0  0  0  0  0  0  0  0  0  0  0
   12.7887    7.1186   41.1326 P   0  0  2  0  0  5  0  0  0  0  0  0
   13.4414    6.0784   40.2219 O   0  0  0  0  0  0  0  0  0  0  0  0
   13.9404    8.3086   41.4172 O   0  0  0  0  0  0  0  0  0  0  0  0
   11.4850    7.7554   40.2551 O   0  0  0  0  0  0  0  0  0  0  0  0
   10.3279    7.1864   40.7927 C   0  0  0  0  0  0  0  0  0  0  0  0
    9.3107    7.1126   39.6808 C   0  0  1  0  0  0  0  0  0  0  0  0
    9.6443    7.9713   38.6268 O   0  0  0  0  0  0  0  0  0  0  0  0
    8.8990    7.5794   37.5469 C   0  0  1  0  0  0  0  0  0  0  0  0
    9.6025    7.7158   36.2866 N   0  0  0  0  0  0  0  0  0  0  0  0
   10.9314    7.9123   36.1936 C   0  0  0  0  0  0  0  0  0  0  0  0
   11.3002    8.0007   34.9040 N   0  0  0  0  0  0  0  0  0  0  0  0
   10.2022    7.8602   34.1634 C   0  0  0  0  0  0  0  0  0  0  0  0
    9.9768    7.8641   32.7872 C   0  0  0  0  0  0  0  0  0  0  0  0
   11.0828    8.0482   31.9423 N   0  0  0  0  0  0  0  0  0  0  0  0
    8.7128    7.6906   32.3739 N   0  0  0  0  0  0  0  0  0  0  0  0
    7.6877    7.5177   33.2424 C   0  0  0  0  0  0  0  0  0  0  0  0
    7.9017    7.5134   34.5709 N   0  0  0  0  0  0  0  0  0  0  0  0
    9.1532    7.6838   35.0319 C   0  0  0  0  0  0  0  0  0  0  0  0
    8.5512    6.1245   37.7111 C   0  0  2  0  0  0  0  0  0  0  0  0
    7.1781    6.0292   37.9487 O   0  0  0  0  0  0  0  0  0  0  0  0
    9.3449    5.7730   38.9751 C   0  0  2  0  0  0  0  0  0  0  0  0
    8.7094    4.7808   39.7119 O   0  0  0  0  0  0  0  0  0  0  0  0
  1  2  1  0
  2  3  1  0
  3  4  1  6
  3  5  1  0
  5  6  1  1
  5  7  1  0
  7  8  2  0
  7  9  1  0
  9 10  1  0
 10 11  2  0
 10 12  1  1
 10 13  1  0
 13 14  1  0
 15 14  1  1
 15 16  1  0
 16 17  1  0
 17 18  1  6
 18 19  1  0
 19 20  2  0
 20 21  1  0
 21 22  2  0
 22 23  1  0
 22 24  1  0
 24 25  2  0
 25 26  1  0
 26 27  2  0
 17 28  1  0
 28 29  1  1
 28 30  1  0
 30 31  1  1
 30 15  1  0
 27 18  1  0
 27 21  1  0
M  END
$$$$
