
     RDKit          3D

 31 33  0  0  0  0  0  0  0  0999 V2000
    9.4953    1.5556   46.0050 C   0  0  0  0  0  0  0  0  0  0  0  0
    9.3499    2.9904   45.6326 C   0  0  0  0  0  0  0  0  0  0  0  0
   10.2602    3.4943   44.5683 C   0  0  2  0  0  0  0  0  0  0  0  0
   11.7302    3.3151   44.9156 C   0  0  0  0  0  0  0  0  0  0  0  0
    9.9227    4.7874   43.9322 C   0  0  2  0  0  0  0  0  0  0  0  0
    8.5280    4.6992   43.4960 N   0  0  0  0  0  0  0  0  0  0  0  0
   10.7199    5.2067   42.7816 C   0  0  0  0  0  0  0  0  0  0  0  0
   10.5967    4.6247   41.6480 O   0  0  0  0  0  0  0  0  0  0  0  0
   11.6547    6.2310   42.7729 O   0  0  0  0  0  0  0  0  0  0  0  0
   12.4279    6.8003   41.3739 P   0  0  2  0  0  5  0  0  0  0  0  0
   13.4189    5.7276   40.9216 O   0  0  0  0  0  0  0  0  0  0  0  0
   13.3145    8.2031   41.6373 O   0  0  0  0  0  0  0  0  0  0  0  0
   11.3508    7.0155   40.0821 O   0  0  0  0  0  0  0  0  0  0  0  0
   10.1230    7.3745   40.6437 C   0  0  0  0  0  0  0  0  0  0  0  0
    9.1199    7.4347   39.5182 C   0  0  1  0  0  0  0  0  0  0  0  0
    9.5992    8.1998   38.4484 O   0  0  0  0  0  0  0  0  0  0  0  0
    8.8130    7.9035   37.3671 C   0  0  1  0  0  0  0  0  0  0  0  0
    9.5437    7.8910   36.1149 N   0  0  0  0  0  0  0  0  0  0  0  0
   10.8864    7.9556   36.0361 C   0  0  0  0  0  0  0  0  0  0  0  0
   11.2796    7.9249   34.7512 N   0  0  0  0  0  0  0  0  0  0  0  0
   10.1836    7.8399   33.9993 C   0  0  0  0  0  0  0  0  0  0  0  0
    9.9787    7.7753   32.6214 C   0  0  0  0  0  0  0  0  0  0  0  0
   11.1087    7.7996   31.7887 N   0  0  0  0  0  0  0  0  0  0  0  0
    8.7098    7.6945   32.1948 N   0  0  0  0  0  0  0  0  0  0  0  0
    7.6610    7.6753   33.0520 C   0  0  0  0  0  0  0  0  0  0  0  0
    7.8552    7.7375   34.3821 N   0  0  0  0  0  0  0  0  0  0  0  0
    9.1107    7.8196   34.8562 C   0  0  0  0  0  0  0  0  0  0  0  0
    8.2340    6.5282   37.5621 C   0  0  2  0  0  0  0  0  0  0  0  0
    6.8608    6.6609   37.7805 O   0  0  0  0  0  0  0  0  0  0  0  0
    8.9463    6.0883   38.8468 C   0  0  2  0  0  0  0  0  0  0  0  0
    8.1512    5.2313   39.5980 O   0  0  0  0  0  0  0  0  0  0  0  0
  1  2  1  0
  2  3  1  0
  3  4  1  1
  3  5  1  0
  5  6  1  6
  5  7  1  0
  7  8  2  0
  7  9  1  0
  9 10  1  0
 10 11  2  0
 10 12  1  1
 10 13  1  0
 13 14  1  0
 15 14  1  1
 15 16  1  0
 16 17  1  0
 17 18  1  6
 18 19  1  0
 19 20  2  0
 20 21  1  0
 21 22  2  0
 22 23  1  0
 22 24  1  0
 24 25  2  0
 25 26  1  0
 26 27  2  0
 17 28  1  0
 28 29  1  1
 28 30  1  0
 30 31  1  1
 30 15  1  0
 27 18  1  0
 27 21  1  0
M  END
$$$$
