
     RDKit          3D

 31 33  0  0  0  0  0  0  0  0999 V2000
    7.7280    3.7969   44.4659 C   0  0  0  0  0  0  0  0  0  0  0  0
    8.9774    3.7657   43.6558 C   0  0  0  0  0  0  0  0  0  0  0  0
   10.2558    3.9162   44.4032 C   0  0  2  0  0  0  0  0  0  0  0  0
   10.1744    4.9596   45.5071 C   0  0  0  0  0  0  0  0  0  0  0  0
   11.5111    3.9342   43.6193 C   0  0  2  0  0  0  0  0  0  0  0  0
   12.6143    3.8173   44.5746 N   0  0  0  0  0  0  0  0  0  0  0  0
   11.7727    5.1036   42.7831 C   0  0  0  0  0  0  0  0  0  0  0  0
   11.0841    6.1747   42.9149 O   0  0  0  0  0  0  0  0  0  0  0  0
   12.7459    5.1955   41.7995 O   0  0  0  0  0  0  0  0  0  0  0  0
   12.9294    6.5284   40.7655 P   0  0  2  0  0  5  0  0  0  0  0  0
   13.2456    5.9928   39.3689 O   0  0  0  0  0  0  0  0  0  0  0  0
   14.2055    7.5299   41.2039 O   0  0  0  0  0  0  0  0  0  0  0  0
   11.4998    7.4266   40.6088 O   0  0  0  0  0  0  0  0  0  0  0  0
   10.4457    6.5411   40.8463 C   0  0  0  0  0  0  0  0  0  0  0  0
    9.4010    6.7996   39.7887 C   0  0  1  0  0  0  0  0  0  0  0  0
    9.8424    7.7462   38.8567 O   0  0  0  0  0  0  0  0  0  0  0  0
    9.0147    7.6467   37.7702 C   0  0  1  0  0  0  0  0  0  0  0  0
    9.6975    7.8620   36.5095 N   0  0  0  0  0  0  0  0  0  0  0  0
   10.9978    8.1992   36.4155 C   0  0  0  0  0  0  0  0  0  0  0  0
   11.3527    8.3313   35.1258 N   0  0  0  0  0  0  0  0  0  0  0  0
   10.2746    8.0776   34.3862 C   0  0  0  0  0  0  0  0  0  0  0  0
   10.0476    8.0628   33.0103 C   0  0  0  0  0  0  0  0  0  0  0  0
   11.1262    8.3668   32.1646 N   0  0  0  0  0  0  0  0  0  0  0  0
    8.8085    7.7573   32.5980 N   0  0  0  0  0  0  0  0  0  0  0  0
    7.8092    7.4729   33.4672 C   0  0  0  0  0  0  0  0  0  0  0  0
    8.0248    7.4863   34.7954 N   0  0  0  0  0  0  0  0  0  0  0  0
    9.2519    7.7872   35.2554 C   0  0  0  0  0  0  0  0  0  0  0  0
    8.4386    6.2569   37.7364 C   0  0  2  0  0  0  0  0  0  0  0  0
    7.0751    6.3436   38.0269 O   0  0  0  0  0  0  0  0  0  0  0  0
    9.1973    5.5954   38.8931 C   0  0  2  0  0  0  0  0  0  0  0  0
    8.4281    4.6146   39.5075 O   0  0  0  0  0  0  0  0  0  0  0  0
  1  2  1  0
  2  3  1  0
  3  4  1  6
  3  5  1  0
  5  6  1  1
  5  7  1  0
  7  8  2  0
  7  9  1  0
  9 10  1  0
 10 11  2  0
 10 12  1  1
 10 13  1  0
 13 14  1  0
 15 14  1  1
 15 16  1  0
 16 17  1  0
 17 18  1  6
 18 19  1  0
 19 20  2  0
 20 21  1  0
 21 22  2  0
 22 23  1  0
 22 24  1  0
 24 25  2  0
 25 26  1  0
 26 27  2  0
 17 28  1  0
 28 29  1  1
 28 30  1  0
 30 31  1  1
 30 15  1  0
 27 18  1  0
 27 21  1  0
M  END
$$$$
