
     RDKit          3D

 31 33  0  0  0  0  0  0  0  0999 V2000
    8.4462    3.2245   45.6836 C   0  0  0  0  0  0  0  0  0  0  0  0
    9.9101    3.3787   45.4566 C   0  0  0  0  0  0  0  0  0  0  0  0
   10.3194    3.9859   44.1608 C   0  0  2  0  0  0  0  0  0  0  0  0
    9.4733    3.5064   42.9912 C   0  0  0  0  0  0  0  0  0  0  0  0
   11.7688    4.0918   43.8799 C   0  0  2  0  0  0  0  0  0  0  0  0
   12.3858    4.7262   45.0462 N   0  0  0  0  0  0  0  0  0  0  0  0
   12.1780    4.8470   42.6979 C   0  0  0  0  0  0  0  0  0  0  0  0
   12.2514    4.2847   41.5501 O   0  0  0  0  0  0  0  0  0  0  0  0
   12.5162    6.1916   42.6719 O   0  0  0  0  0  0  0  0  0  0  0  0
   12.8151    7.0693   41.2507 P   0  0  2  0  0  5  0  0  0  0  0  0
   14.0626    6.4784   40.5935 O   0  0  0  0  0  0  0  0  0  0  0  0
   13.1376    8.6934   41.5364 O   0  0  0  0  0  0  0  0  0  0  0  0
   11.5667    6.9053   40.1151 O   0  0  0  0  0  0  0  0  0  0  0  0
   10.4183    7.4371   40.7068 C   0  0  0  0  0  0  0  0  0  0  0  0
    9.3250    7.4006   39.6677 C   0  0  1  0  0  0  0  0  0  0  0  0
    9.6348    8.2160   38.5728 O   0  0  0  0  0  0  0  0  0  0  0  0
    8.7961    7.8466   37.5552 C   0  0  1  0  0  0  0  0  0  0  0  0
    9.4187    7.9149   36.2476 N   0  0  0  0  0  0  0  0  0  0  0  0
   10.7404    8.0925   36.0611 C   0  0  0  0  0  0  0  0  0  0  0  0
   11.0266    8.1150   34.7479 N   0  0  0  0  0  0  0  0  0  0  0  0
    9.8825    7.9509   34.0862 C   0  0  0  0  0  0  0  0  0  0  0  0
    9.5696    7.8913   32.7285 C   0  0  0  0  0  0  0  0  0  0  0  0
   10.6207    8.0228   31.8071 N   0  0  0  0  0  0  0  0  0  0  0  0
    8.2805    7.7117   32.4052 N   0  0  0  0  0  0  0  0  0  0  0  0
    7.3117    7.5916   33.3444 C   0  0  0  0  0  0  0  0  0  0  0  0
    7.6101    7.6487   34.6553 N   0  0  0  0  0  0  0  0  0  0  0  0
    8.8898    7.8276   35.0271 C   0  0  0  0  0  0  0  0  0  0  0  0
    8.3771    6.4186   37.7782 C   0  0  2  0  0  0  0  0  0  0  0  0
    7.0202    6.4096   38.1095 O   0  0  0  0  0  0  0  0  0  0  0  0
    9.2336    6.0470   38.9946 C   0  0  2  0  0  0  0  0  0  0  0  0
    8.5938    5.1097   39.7966 O   0  0  0  0  0  0  0  0  0  0  0  0
  1  2  1  0
  2  3  1  0
  3  4  1  6
  3  5  1  0
  5  6  1  1
  5  7  1  0
  7  8  2  0
  7  9  1  0
  9 10  1  0
 10 11  2  0
 10 12  1  1
 10 13  1  0
 13 14  1  0
 15 14  1  1
 15 16  1  0
 16 17  1  0
 17 18  1  6
 18 19  1  0
 19 20  2  0
 20 21  1  0
 21 22  2  0
 22 23  1  0
 22 24  1  0
 24 25  2  0
 25 26  1  0
 26 27  2  0
 17 28  1  0
 28 29  1  1
 28 30  1  0
 30 31  1  1
 30 15  1  0
 27 18  1  0
 27 21  1  0
M  END
$$$$
