
     RDKit          3D

 31 33  0  0  0  0  0  0  0  0999 V2000
   14.2275    2.5546   46.0894 C   0  0  0  0  0  0  0  0  0  0  0  0
   13.5206    3.6769   45.4120 C   0  0  0  0  0  0  0  0  0  0  0  0
   12.2623    3.3315   44.6960 C   0  0  2  0  0  0  0  0  0  0  0  0
   12.3857    2.0642   43.8640 C   0  0  0  0  0  0  0  0  0  0  0  0
   11.5173    4.4335   44.0469 C   0  0  2  0  0  0  0  0  0  0  0  0
   10.1509    3.9559   43.8276 N   0  0  0  0  0  0  0  0  0  0  0  0
   12.0209    4.9336   42.7697 C   0  0  0  0  0  0  0  0  0  0  0  0
   11.8550    4.2665   41.6897 O   0  0  0  0  0  0  0  0  0  0  0  0
   12.7007    6.1269   42.5775 O   0  0  0  0  0  0  0  0  0  0  0  0
   13.0962    6.7609   41.0540 P   0  0  2  0  0  5  0  0  0  0  0  0
   14.2460    5.9272   40.4882 O   0  0  0  0  0  0  0  0  0  0  0  0
   13.6351    8.3510   41.1232 O   0  0  0  0  0  0  0  0  0  0  0  0
   11.8233    6.6159   39.9432 O   0  0  0  0  0  0  0  0  0  0  0  0
   10.6604    6.9925   40.6195 C   0  0  0  0  0  0  0  0  0  0  0  0
    9.5439    7.0160   39.6049 C   0  0  1  0  0  0  0  0  0  0  0  0
    9.7846    7.9642   38.6037 O   0  0  0  0  0  0  0  0  0  0  0  0
    8.9394    7.6683   37.5677 C   0  0  1  0  0  0  0  0  0  0  0  0
    9.5240    7.9153   36.2642 N   0  0  0  0  0  0  0  0  0  0  0  0
   10.8349    8.1536   36.0695 C   0  0  0  0  0  0  0  0  0  0  0  0
   11.0844    8.3460   34.7628 N   0  0  0  0  0  0  0  0  0  0  0  0
    9.9274    8.2308   34.1134 C   0  0  0  0  0  0  0  0  0  0  0  0
    9.5792    8.3295   32.7666 C   0  0  0  0  0  0  0  0  0  0  0  0
   10.6008    8.6045   31.8438 N   0  0  0  0  0  0  0  0  0  0  0  0
    8.2869    8.1531   32.4544 N   0  0  0  0  0  0  0  0  0  0  0  0
    7.3477    7.8897   33.3944 C   0  0  0  0  0  0  0  0  0  0  0  0
    7.6802    7.7938   34.6947 N   0  0  0  0  0  0  0  0  0  0  0  0
    8.9644    7.9633   35.0552 C   0  0  0  0  0  0  0  0  0  0  0  0
    8.5975    6.2043   37.6356 C   0  0  2  0  0  0  0  0  0  0  0  0
    7.2517    6.0874   37.9907 O   0  0  0  0  0  0  0  0  0  0  0  0
    9.5024    5.7436   38.7846 C   0  0  2  0  0  0  0  0  0  0  0  0
    8.9307    4.6901   39.4876 O   0  0  0  0  0  0  0  0  0  0  0  0
  1  2  1  0
  2  3  1  0
  3  4  1  6
  3  5  1  0
  5  6  1  6
  5  7  1  0
  7  8  2  0
  7  9  1  0
  9 10  1  0
 10 11  2  0
 10 12  1  1
 10 13  1  0
 13 14  1  0
 15 14  1  1
 15 16  1  0
 16 17  1  0
 17 18  1  6
 18 19  1  0
 19 20  2  0
 20 21  1  0
 21 22  2  0
 22 23  1  0
 22 24  1  0
 24 25  2  0
 25 26  1  0
 26 27  2  0
 17 28  1  0
 28 29  1  1
 28 30  1  0
 30 31  1  1
 30 15  1  0
 27 18  1  0
 27 21  1  0
M  END
$$$$
