
     RDKit          3D

 31 33  0  0  0  0  0  0  0  0999 V2000
    8.2294    3.1805   45.5574 C   0  0  0  0  0  0  0  0  0  0  0  0
    9.6950    3.2246   45.2961 C   0  0  0  0  0  0  0  0  0  0  0  0
   10.1456    4.1232   44.1984 C   0  0  2  0  0  0  0  0  0  0  0  0
    9.2223    4.0876   42.9901 C   0  0  0  0  0  0  0  0  0  0  0  0
   11.5906    4.1449   43.8787 C   0  0  2  0  0  0  0  0  0  0  0  0
   12.2726    4.7586   45.0196 N   0  0  0  0  0  0  0  0  0  0  0  0
   12.0093    4.8612   42.6760 C   0  0  0  0  0  0  0  0  0  0  0  0
   12.1090    4.2578   41.5513 O   0  0  0  0  0  0  0  0  0  0  0  0
   12.3302    6.2085   42.6052 O   0  0  0  0  0  0  0  0  0  0  0  0
   12.8160    6.9965   41.1831 P   0  0  2  0  0  5  0  0  0  0  0  0
   13.9914    6.2142   40.5969 O   0  0  0  0  0  0  0  0  0  0  0  0
   13.3593    8.5636   41.4524 O   0  0  0  0  0  0  0  0  0  0  0  0
   11.6079    6.9859   39.9933 O   0  0  0  0  0  0  0  0  0  0  0  0
   10.4128    7.3159   40.6370 C   0  0  0  0  0  0  0  0  0  0  0  0
    9.3299    7.3260   39.5863 C   0  0  1  0  0  0  0  0  0  0  0  0
    9.6784    8.1408   38.5028 O   0  0  0  0  0  0  0  0  0  0  0  0
    8.8387    7.8095   37.4730 C   0  0  1  0  0  0  0  0  0  0  0  0
    9.4770    7.8693   36.1727 N   0  0  0  0  0  0  0  0  0  0  0  0
   10.7961    8.0778   36.0001 C   0  0  0  0  0  0  0  0  0  0  0  0
   11.0995    8.0829   34.6906 N   0  0  0  0  0  0  0  0  0  0  0  0
    9.9691    7.8765   34.0172 C   0  0  0  0  0  0  0  0  0  0  0  0
    9.6763    7.7831   32.6570 C   0  0  0  0  0  0  0  0  0  0  0  0
   10.7361    7.9246   31.7471 N   0  0  0  0  0  0  0  0  0  0  0  0
    8.3968    7.5639   32.3202 N   0  0  0  0  0  0  0  0  0  0  0  0
    7.4188    7.4363   33.2488 C   0  0  0  0  0  0  0  0  0  0  0  0
    7.6978    7.5259   34.5621 N   0  0  0  0  0  0  0  0  0  0  0  0
    8.9673    7.7451   34.9472 C   0  0  0  0  0  0  0  0  0  0  0  0
    8.3699    6.3942   37.6777 C   0  0  2  0  0  0  0  0  0  0  0  0
    7.0100    6.4276   37.9949 O   0  0  0  0  0  0  0  0  0  0  0  0
    9.2005    5.9826   38.8991 C   0  0  2  0  0  0  0  0  0  0  0  0
    8.5213    5.0597   39.6852 O   0  0  0  0  0  0  0  0  0  0  0  0
  1  2  1  0
  2  3  1  0
  3  4  1  6
  3  5  1  0
  5  6  1  1
  5  7  1  0
  7  8  2  0
  7  9  1  0
  9 10  1  0
 10 11  2  0
 10 12  1  1
 10 13  1  0
 13 14  1  0
 15 14  1  1
 15 16  1  0
 16 17  1  0
 17 18  1  6
 18 19  1  0
 19 20  2  0
 20 21  1  0
 21 22  2  0
 22 23  1  0
 22 24  1  0
 24 25  2  0
 25 26  1  0
 26 27  2  0
 17 28  1  0
 28 29  1  1
 28 30  1  0
 30 31  1  1
 30 15  1  0
 27 18  1  0
 27 21  1  0
M  END
$$$$
