
     RDKit          3D

 31 33  0  0  0  0  0  0  0  0999 V2000
    9.5508    2.5117   47.0333 C   0  0  0  0  0  0  0  0  0  0  0  0
    9.2523    3.6024   46.0641 C   0  0  0  0  0  0  0  0  0  0  0  0
   10.2729    3.8491   45.0091 C   0  0  2  0  0  0  0  0  0  0  0  0
   11.6946    3.8387   45.5497 C   0  0  0  0  0  0  0  0  0  0  0  0
    9.9910    4.9099   44.0161 C   0  0  2  0  0  0  0  0  0  0  0  0
    8.6642    4.6356   43.4614 N   0  0  0  0  0  0  0  0  0  0  0  0
   10.9173    5.0544   42.8954 C   0  0  0  0  0  0  0  0  0  0  0  0
   10.9113    4.2202   41.9243 O   0  0  0  0  0  0  0  0  0  0  0  0
   11.8636    6.0577   42.7499 O   0  0  0  0  0  0  0  0  0  0  0  0
   12.4857    6.5681   41.2560 P   0  0  2  0  0  5  0  0  0  0  0  0
   13.5812    5.5828   40.8480 O   0  0  0  0  0  0  0  0  0  0  0  0
   13.1985    8.0882   41.3253 O   0  0  0  0  0  0  0  0  0  0  0  0
   11.3257    6.5149   40.0205 O   0  0  0  0  0  0  0  0  0  0  0  0
   10.1428    7.0224   40.5634 C   0  0  0  0  0  0  0  0  0  0  0  0
    9.1198    7.0479   39.4547 C   0  0  1  0  0  0  0  0  0  0  0  0
    9.4429    8.0041   38.4847 O   0  0  0  0  0  0  0  0  0  0  0  0
    8.6936    7.7115   37.3764 C   0  0  1  0  0  0  0  0  0  0  0  0
    9.3893    7.9702   36.1310 N   0  0  0  0  0  0  0  0  0  0  0  0
   10.7070    8.2372   36.0563 C   0  0  0  0  0  0  0  0  0  0  0  0
   11.0706    8.4338   34.7773 N   0  0  0  0  0  0  0  0  0  0  0  0
    9.9806    8.2925   34.0252 C   0  0  0  0  0  0  0  0  0  0  0  0
    9.7549    8.3821   32.6519 C   0  0  0  0  0  0  0  0  0  0  0  0
   10.8504    8.6788   31.8255 N   0  0  0  0  0  0  0  0  0  0  0  0
    8.5008    8.1768   32.2234 N   0  0  0  0  0  0  0  0  0  0  0  0
    7.4856    7.8936   33.0744 C   0  0  0  0  0  0  0  0  0  0  0  0
    7.6999    7.8064   34.4000 N   0  0  0  0  0  0  0  0  0  0  0  0
    8.9417    8.0046   34.8758 C   0  0  0  0  0  0  0  0  0  0  0  0
    8.3545    6.2456   37.4044 C   0  0  2  0  0  0  0  0  0  0  0  0
    6.9833    6.1203   37.6390 O   0  0  0  0  0  0  0  0  0  0  0  0
    9.1571    5.7811   38.6256 C   0  0  2  0  0  0  0  0  0  0  0  0
    8.5311    4.7202   39.2687 O   0  0  0  0  0  0  0  0  0  0  0  0
  1  2  1  0
  2  3  1  0
  3  4  1  1
  3  5  1  0
  5  6  1  6
  5  7  1  0
  7  8  2  0
  7  9  1  0
  9 10  1  0
 10 11  2  0
 10 12  1  1
 10 13  1  0
 13 14  1  0
 15 14  1  1
 15 16  1  0
 16 17  1  0
 17 18  1  6
 18 19  1  0
 19 20  2  0
 20 21  1  0
 21 22  2  0
 22 23  1  0
 22 24  1  0
 24 25  2  0
 25 26  1  0
 26 27  2  0
 17 28  1  0
 28 29  1  1
 28 30  1  0
 30 31  1  1
 30 15  1  0
 27 18  1  0
 27 21  1  0
M  END
$$$$
