
     RDKit          3D

 31 33  0  0  0  0  0  0  0  0999 V2000
   31.2850  -20.6480   35.9876 C   0  0  0  0  0  0  0  0  0  0  0  0
   30.3272  -21.4257   35.1532 C   0  0  0  0  0  0  0  0  0  0  0  0
   30.3466  -21.1494   33.6907 C   0  0  2  0  0  0  0  0  0  0  0  0
   30.4532  -19.6659   33.3719 C   0  0  0  0  0  0  0  0  0  0  0  0
   29.4021  -21.9044   32.8371 C   0  0  2  0  0  0  0  0  0  0  0  0
   29.6924  -23.3262   33.0307 N   0  0  0  0  0  0  0  0  0  0  0  0
   29.4254  -21.6402   31.4003 C   0  0  0  0  0  0  0  0  0  0  0  0
   28.3867  -21.2007   30.7946 O   0  0  0  0  0  0  0  0  0  0  0  0
   30.5144  -21.8196   30.5606 O   0  0  0  0  0  0  0  0  0  0  0  0
   30.8435  -20.8469   29.2097 P   0  0  2  0  0  5  0  0  0  0  0  0
   30.8793  -21.7556   27.9807 O   0  0  0  0  0  0  0  0  0  0  0  0
   32.3387  -20.0852   29.2965 O   0  0  0  0  0  0  0  0  0  0  0  0
   29.6181  -19.7123   28.9162 O   0  0  0  0  0  0  0  0  0  0  0  0
   29.6162  -19.4762   27.5392 C   0  0  0  0  0  0  0  0  0  0  0  0
   28.2377  -19.8198   27.0311 C   0  0  1  0  0  0  0  0  0  0  0  0
   28.0194  -21.2024   27.0442 O   0  0  0  0  0  0  0  0  0  0  0  0
   26.6682  -21.3903   26.9249 C   0  0  1  0  0  0  0  0  0  0  0  0
   26.1783  -22.5210   27.6889 N   0  0  0  0  0  0  0  0  0  0  0  0
   26.2898  -22.6192   29.0272 C   0  0  0  0  0  0  0  0  0  0  0  0
   25.7480  -23.7720   29.4564 N   0  0  0  0  0  0  0  0  0  0  0  0
   25.2855  -24.4189   28.3880 C   0  0  0  0  0  0  0  0  0  0  0  0
   24.6357  -25.6420   28.2247 C   0  0  0  0  0  0  0  0  0  0  0  0
   24.3807  -26.4073   29.3737 N   0  0  0  0  0  0  0  0  0  0  0  0
   24.3024  -25.9954   26.9747 N   0  0  0  0  0  0  0  0  0  0  0  0
   24.5775  -25.2100   25.9058 C   0  0  0  0  0  0  0  0  0  0  0  0
   25.2043  -24.0293   26.0599 N   0  0  0  0  0  0  0  0  0  0  0  0
   25.5578  -23.6332   27.2952 C   0  0  0  0  0  0  0  0  0  0  0  0
   25.9692  -20.1625   27.4429 C   0  0  2  0  0  0  0  0  0  0  0  0
   25.3787  -19.5079   26.3595 O   0  0  0  0  0  0  0  0  0  0  0  0
   27.1553  -19.3542   27.9826 C   0  0  2  0  0  0  0  0  0  0  0  0
   26.9249  -17.9876   27.8795 O   0  0  0  0  0  0  0  0  0  0  0  0
  1  2  1  0
  2  3  1  0
  3  4  1  1
  3  5  1  0
  5  6  1  6
  5  7  1  0
  7  8  2  0
  7  9  1  0
  9 10  1  0
 10 11  2  0
 10 12  1  1
 10 13  1  0
 13 14  1  0
 15 14  1  1
 15 16  1  0
 16 17  1  0
 17 18  1  1
 18 19  1  0
 19 20  2  0
 20 21  1  0
 21 22  2  0
 22 23  1  0
 22 24  1  0
 24 25  2  0
 25 26  1  0
 26 27  2  0
 17 28  1  0
 28 29  1  6
 28 30  1  0
 30 31  1  6
 30 15  1  0
 27 18  1  0
 27 21  1  0
M  END
$$$$
