
     RDKit          3D

 23 26  0  0  0  0  0  0  0  0999 V2000
   30.5368    9.6255  -25.3851 C   0  0  0  0  0  0  0  0  0  0  0  0
   29.2725   10.0017  -24.6891 C   0  0  0  0  0  0  0  0  0  0  0  0
   28.2752   10.8278  -25.1270 C   0  0  0  0  0  0  0  0  0  0  0  0
   27.2891   10.8876  -24.1642 C   0  0  0  0  0  0  0  0  0  0  0  0
   26.0889   11.6821  -24.3006 N   0  0  0  0  0  0  0  0  0  0  0  0
   25.9578   12.6622  -25.3009 C   0  0  0  0  0  0  0  0  0  0  0  0
   26.9593   12.9574  -25.9891 O   0  0  0  0  0  0  0  0  0  0  0  0
   24.7089   13.3408  -25.5622 C   0  0  0  0  0  0  0  0  0  0  0  0
   23.4847   13.0162  -24.9988 C   0  0  0  0  0  0  0  0  0  0  0  0
   22.5501   13.8616  -25.4942 N   0  0  0  0  0  0  0  0  0  0  0  0
   21.1651   13.7636  -25.0936 C   0  0  0  0  0  0  0  0  0  0  0  0
   20.2590   14.6302  -25.9739 C   0  0  0  0  0  0  0  0  0  0  0  0
   20.6874   12.4450  -24.6359 C   0  0  0  0  0  0  0  0  0  0  0  0
   20.7492   13.6049  -23.6973 C   0  0  0  0  0  0  0  0  0  0  0  0
   23.1370   14.7189  -26.3564 C   0  0  0  0  0  0  0  0  0  0  0  0
   22.6100   15.7291  -27.0910 N   0  0  0  0  0  0  0  0  0  0  0  0
   23.4607   16.4156  -27.8776 C   0  0  0  0  0  0  0  0  0  0  0  0
   24.7685   16.1282  -27.9415 N   0  0  0  0  0  0  0  0  0  0  0  0
   25.3068   15.1351  -27.2237 C   0  0  0  0  0  0  0  0  0  0  0  0
   26.6939   14.8117  -27.2713 N   0  0  0  0  0  0  0  0  0  0  0  0
   24.4907   14.3897  -26.3970 C   0  0  0  0  0  0  0  0  0  0  0  0
   27.6901   10.1098  -23.1653 N   0  0  0  0  0  0  0  0  0  0  0  0
   28.8821    9.5752  -23.4763 N   0  0  0  0  0  0  0  0  0  0  0  0
  1  2  1  0
  2  3  2  0
  3  4  1  0
  4  5  1  0
  5  6  1  0
  6  7  2  0
  6  8  1  0
  8  9  2  0
  9 10  1  0
 10 11  1  0
 11 12  1  0
 11 13  1  0
 13 14  1  0
 10 15  1  0
 15 16  2  0
 16 17  1  0
 17 18  2  0
 18 19  1  0
 19 20  1  0
 19 21  2  0
  4 22  2  0
 22 23  1  0
 23  2  1  0
 21  8  1  0
 14 11  1  0
 21 15  1  0
M  END
$$$$
