
     RDKit          3D

 23 26  0  0  0  0  0  0  0  0999 V2000
   30.7620    9.9941  -25.0854 C   0  0  0  0  0  0  0  0  0  0  0  0
   29.3911   10.2047  -24.5371 C   0  0  0  0  0  0  0  0  0  0  0  0
   28.4322   11.0818  -24.9612 C   0  0  0  0  0  0  0  0  0  0  0  0
   27.3112   10.9355  -24.1707 C   0  0  0  0  0  0  0  0  0  0  0  0
   26.1083   11.7193  -24.3402 N   0  0  0  0  0  0  0  0  0  0  0  0
   26.0006   12.7068  -25.3360 C   0  0  0  0  0  0  0  0  0  0  0  0
   27.0211   13.0172  -25.9887 O   0  0  0  0  0  0  0  0  0  0  0  0
   24.7545   13.3763  -25.6321 C   0  0  0  0  0  0  0  0  0  0  0  0
   23.5212   13.0573  -25.0858 C   0  0  0  0  0  0  0  0  0  0  0  0
   22.5931   13.8905  -25.6131 N   0  0  0  0  0  0  0  0  0  0  0  0
   21.2013   13.7946  -25.2363 C   0  0  0  0  0  0  0  0  0  0  0  0
   20.3127   14.6686  -26.1272 C   0  0  0  0  0  0  0  0  0  0  0  0
   20.7120   12.4752  -24.7938 C   0  0  0  0  0  0  0  0  0  0  0  0
   20.7615   13.6298  -23.8482 C   0  0  0  0  0  0  0  0  0  0  0  0
   23.1931   14.7345  -26.4795 C   0  0  0  0  0  0  0  0  0  0  0  0
   22.6764   15.7297  -27.2414 N   0  0  0  0  0  0  0  0  0  0  0  0
   23.5392   16.4053  -28.0242 C   0  0  0  0  0  0  0  0  0  0  0  0
   24.8489   16.1214  -28.0590 N   0  0  0  0  0  0  0  0  0  0  0  0
   25.3771   15.1431  -27.3139 C   0  0  0  0  0  0  0  0  0  0  0  0
   26.7659   14.8239  -27.3303 N   0  0  0  0  0  0  0  0  0  0  0  0
   24.5484   14.4095  -26.4893 C   0  0  0  0  0  0  0  0  0  0  0  0
   27.5949    9.9858  -23.2868 N   0  0  0  0  0  0  0  0  0  0  0  0
   28.8443    9.5436  -23.5031 N   0  0  0  0  0  0  0  0  0  0  0  0
  1  2  1  0
  2  3  2  0
  3  4  1  0
  4  5  1  0
  5  6  1  0
  6  7  2  0
  6  8  1  0
  8  9  2  0
  9 10  1  0
 10 11  1  0
 11 12  1  0
 11 13  1  0
 13 14  1  0
 10 15  1  0
 15 16  2  0
 16 17  1  0
 17 18  2  0
 18 19  1  0
 19 20  1  0
 19 21  2  0
  4 22  2  0
 22 23  1  0
 23  2  1  0
 21  8  1  0
 14 11  1  0
 21 15  1  0
M  END
$$$$
