
     RDKit          3D

 23 26  0  0  0  0  0  0  0  0999 V2000
   30.7758    9.7457  -25.2231 C   0  0  0  0  0  0  0  0  0  0  0  0
   29.5036   10.1512  -24.5588 C   0  0  0  0  0  0  0  0  0  0  0  0
   28.4625   10.8662  -25.0822 C   0  0  0  0  0  0  0  0  0  0  0  0
   27.4865   11.0062  -24.1174 C   0  0  0  0  0  0  0  0  0  0  0  0
   26.2480   11.7200  -24.3340 N   0  0  0  0  0  0  0  0  0  0  0  0
   26.1079   12.6666  -25.3648 C   0  0  0  0  0  0  0  0  0  0  0  0
   27.1122   12.9666  -26.0470 O   0  0  0  0  0  0  0  0  0  0  0  0
   24.8467   13.3056  -25.6643 C   0  0  0  0  0  0  0  0  0  0  0  0
   23.6170   12.9426  -25.1376 C   0  0  0  0  0  0  0  0  0  0  0  0
   22.6715   13.7582  -25.6618 N   0  0  0  0  0  0  0  0  0  0  0  0
   21.2790   13.6168  -25.3029 C   0  0  0  0  0  0  0  0  0  0  0  0
   20.7339   14.8859  -24.6401 C   0  0  0  0  0  0  0  0  0  0  0  0
   20.4189   12.8532  -26.2267 C   0  0  0  0  0  0  0  0  0  0  0  0
   20.6982   12.3503  -24.8486 C   0  0  0  0  0  0  0  0  0  0  0  0
   23.2569   14.6335  -26.5069 C   0  0  0  0  0  0  0  0  0  0  0  0
   22.7207   15.6264  -27.2581 N   0  0  0  0  0  0  0  0  0  0  0  0
   23.5727   16.3394  -28.0194 C   0  0  0  0  0  0  0  0  0  0  0  0
   24.8903   16.0931  -28.0437 N   0  0  0  0  0  0  0  0  0  0  0  0
   25.4376   15.1176  -27.3090 C   0  0  0  0  0  0  0  0  0  0  0  0
   26.8350   14.8380  -27.3146 N   0  0  0  0  0  0  0  0  0  0  0  0
   24.6209   14.3470  -26.5064 C   0  0  0  0  0  0  0  0  0  0  0  0
   27.9364   10.3849  -23.0333 N   0  0  0  0  0  0  0  0  0  0  0  0
   29.1489    9.8696  -23.2939 N   0  0  0  0  0  0  0  0  0  0  0  0
  1  2  1  0
  2  3  2  0
  3  4  1  0
  4  5  1  0
  5  6  1  0
  6  7  2  0
  6  8  1  0
  8  9  2  0
  9 10  1  0
 10 11  1  0
 11 12  1  0
 11 13  1  0
 13 14  1  0
 10 15  1  0
 15 16  2  0
 16 17  1  0
 17 18  2  0
 18 19  1  0
 19 20  1  0
 19 21  2  0
  4 22  2  0
 22 23  1  0
 23  2  1  0
 21  8  1  0
 14 11  1  0
 21 15  1  0
M  END
$$$$
