
     RDKit          3D

 23 26  0  0  0  0  0  0  0  0999 V2000
    7.9291  -12.1918    2.6920 C   0  0  0  0  0  0  0  0  0  0  0  0
    8.0940  -10.7774    2.2488 C   0  0  0  0  0  0  0  0  0  0  0  0
    8.1211   -9.6451    3.0144 C   0  0  0  0  0  0  0  0  0  0  0  0
    8.3000   -8.5528    2.1910 C   0  0  0  0  0  0  0  0  0  0  0  0
    8.3656   -7.1920    2.6749 N   0  0  0  0  0  0  0  0  0  0  0  0
    8.3165   -6.8896    4.0476 C   0  0  0  0  0  0  0  0  0  0  0  0
    7.8640   -7.7475    4.8370 O   0  0  0  0  0  0  0  0  0  0  0  0
    8.7690   -5.6243    4.5793 C   0  0  0  0  0  0  0  0  0  0  0  0
    9.5061   -4.6781    3.8845 C   0  0  0  0  0  0  0  0  0  0  0  0
    9.7533   -3.6370    4.7143 N   0  0  0  0  0  0  0  0  0  0  0  0
   10.5133   -2.4908    4.2708 C   0  0  0  0  0  0  0  0  0  0  0  0
   10.9600   -1.6182    5.4482 C   0  0  0  0  0  0  0  0  0  0  0  0
   11.4229   -2.6869    3.1260 C   0  0  0  0  0  0  0  0  0  0  0  0
   10.2353   -1.7883    3.0150 C   0  0  0  0  0  0  0  0  0  0  0  0
    9.1966   -3.8856    5.9190 C   0  0  0  0  0  0  0  0  0  0  0  0
    9.1836   -3.1442    7.0539 N   0  0  0  0  0  0  0  0  0  0  0  0
    8.5404   -3.6687    8.1145 C   0  0  0  0  0  0  0  0  0  0  0  0
    7.9356   -4.8642    8.0666 N   0  0  0  0  0  0  0  0  0  0  0  0
    7.9376   -5.6101    6.9555 C   0  0  0  0  0  0  0  0  0  0  0  0
    7.2995   -6.8820    6.8779 N   0  0  0  0  0  0  0  0  0  0  0  0
    8.5802   -5.1326    5.8312 C   0  0  0  0  0  0  0  0  0  0  0  0
    8.3784   -9.0239    0.9518 N   0  0  0  0  0  0  0  0  0  0  0  0
    8.2549  -10.3608    0.9817 N   0  0  0  0  0  0  0  0  0  0  0  0
  1  2  1  0
  2  3  2  0
  3  4  1  0
  4  5  1  0
  5  6  1  0
  6  7  2  0
  6  8  1  0
  8  9  2  0
  9 10  1  0
 10 11  1  0
 11 12  1  0
 11 13  1  0
 13 14  1  0
 10 15  1  0
 15 16  2  0
 16 17  1  0
 17 18  2  0
 18 19  1  0
 19 20  1  0
 19 21  2  0
  4 22  2  0
 22 23  1  0
 23  2  1  0
 21  8  1  0
 14 11  1  0
 21 15  1  0
M  END
$$$$
