
     RDKit          3D

 23 26  0  0  0  0  0  0  0  0999 V2000
   30.6728    9.8333  -25.0984 C   0  0  0  0  0  0  0  0  0  0  0  0
   29.3676   10.1993  -24.4765 C   0  0  0  0  0  0  0  0  0  0  0  0
   28.4079   11.0482  -24.9533 C   0  0  0  0  0  0  0  0  0  0  0  0
   27.3601   11.0871  -24.0569 C   0  0  0  0  0  0  0  0  0  0  0  0
   26.1776   11.8968  -24.2476 N   0  0  0  0  0  0  0  0  0  0  0  0
   25.9855   12.6675  -25.4084 C   0  0  0  0  0  0  0  0  0  0  0  0
   26.9414   12.8082  -26.2024 O   0  0  0  0  0  0  0  0  0  0  0  0
   24.7248   13.3030  -25.7170 C   0  0  0  0  0  0  0  0  0  0  0  0
   23.4967   12.9573  -25.1752 C   0  0  0  0  0  0  0  0  0  0  0  0
   22.5511   13.7628  -25.7144 N   0  0  0  0  0  0  0  0  0  0  0  0
   21.1600   13.6349  -25.3449 C   0  0  0  0  0  0  0  0  0  0  0  0
   20.3517   14.8726  -25.7471 C   0  0  0  0  0  0  0  0  0  0  0  0
   20.5498   12.2974  -25.4685 C   0  0  0  0  0  0  0  0  0  0  0  0
   20.7187   12.9413  -24.1317 C   0  0  0  0  0  0  0  0  0  0  0  0
   23.1348   14.6150  -26.5839 C   0  0  0  0  0  0  0  0  0  0  0  0
   22.5979   15.5909  -27.3566 N   0  0  0  0  0  0  0  0  0  0  0  0
   23.4480   16.2819  -28.1397 C   0  0  0  0  0  0  0  0  0  0  0  0
   24.7647   16.0308  -28.1647 N   0  0  0  0  0  0  0  0  0  0  0  0
   25.3128   15.0719  -27.4090 C   0  0  0  0  0  0  0  0  0  0  0  0
   26.7092   14.7876  -27.4149 N   0  0  0  0  0  0  0  0  0  0  0  0
   24.4979   14.3240  -26.5834 C   0  0  0  0  0  0  0  0  0  0  0  0
   27.6876   10.2745  -23.0589 N   0  0  0  0  0  0  0  0  0  0  0  0
   28.8938    9.7386  -23.3068 N   0  0  0  0  0  0  0  0  0  0  0  0
  1  2  1  0
  2  3  2  0
  3  4  1  0
  4  5  1  0
  5  6  1  0
  6  7  2  0
  6  8  1  0
  8  9  2  0
  9 10  1  0
 10 11  1  0
 11 12  1  0
 11 13  1  0
 13 14  1  0
 10 15  1  0
 15 16  2  0
 16 17  1  0
 17 18  2  0
 18 19  1  0
 19 20  1  0
 19 21  2  0
  4 22  2  0
 22 23  1  0
 23  2  1  0
 21  8  1  0
 14 11  1  0
 21 15  1  0
M  END
$$$$
