
     RDKit          3D

 23 26  0  0  0  0  0  0  0  0999 V2000
    7.7183  -12.1711    2.5769 C   0  0  0  0  0  0  0  0  0  0  0  0
    7.9941  -10.7763    2.1264 C   0  0  0  0  0  0  0  0  0  0  0  0
    8.0844   -9.6414    2.8832 C   0  0  0  0  0  0  0  0  0  0  0  0
    8.3598   -8.5728    2.0555 C   0  0  0  0  0  0  0  0  0  0  0  0
    8.5114   -7.2155    2.5298 N   0  0  0  0  0  0  0  0  0  0  0  0
    8.3921   -6.8882    3.8925 C   0  0  0  0  0  0  0  0  0  0  0  0
    7.8927   -7.7291    4.6719 O   0  0  0  0  0  0  0  0  0  0  0  0
    8.8245   -5.6162    4.4249 C   0  0  0  0  0  0  0  0  0  0  0  0
    9.5603   -4.6648    3.7357 C   0  0  0  0  0  0  0  0  0  0  0  0
    9.7862   -3.6182    4.5646 N   0  0  0  0  0  0  0  0  0  0  0  0
   10.5395   -2.4656    4.1262 C   0  0  0  0  0  0  0  0  0  0  0  0
   10.5398   -1.3551    5.1816 C   0  0  0  0  0  0  0  0  0  0  0  0
   11.7604   -2.7183    3.3376 C   0  0  0  0  0  0  0  0  0  0  0  0
   10.5846   -2.0283    2.7282 C   0  0  0  0  0  0  0  0  0  0  0  0
    9.2171   -3.8681    5.7632 C   0  0  0  0  0  0  0  0  0  0  0  0
    9.1821   -3.1227    6.8950 N   0  0  0  0  0  0  0  0  0  0  0  0
    8.5313   -3.6501    7.9494 C   0  0  0  0  0  0  0  0  0  0  0  0
    7.9396   -4.8520    7.8987 N   0  0  0  0  0  0  0  0  0  0  0  0
    7.9634   -5.6020    6.7905 C   0  0  0  0  0  0  0  0  0  0  0  0
    7.3397   -6.8808    6.7098 N   0  0  0  0  0  0  0  0  0  0  0  0
    8.6150   -5.1219    5.6725 C   0  0  0  0  0  0  0  0  0  0  0  0
    8.4328   -9.0603    0.8224 N   0  0  0  0  0  0  0  0  0  0  0  0
    8.2134  -10.3847    0.8600 N   0  0  0  0  0  0  0  0  0  0  0  0
  1  2  1  0
  2  3  2  0
  3  4  1  0
  4  5  1  0
  5  6  1  0
  6  7  2  0
  6  8  1  0
  8  9  2  0
  9 10  1  0
 10 11  1  0
 11 12  1  0
 11 13  1  0
 13 14  1  0
 10 15  1  0
 15 16  2  0
 16 17  1  0
 17 18  2  0
 18 19  1  0
 19 20  1  0
 19 21  2  0
  4 22  2  0
 22 23  1  0
 23  2  1  0
 21  8  1  0
 14 11  1  0
 21 15  1  0
M  END
$$$$
