
     RDKit          3D

 23 26  0  0  0  0  0  0  0  0999 V2000
    8.0467  -12.2445    2.5536 C   0  0  0  0  0  0  0  0  0  0  0  0
    8.2578  -10.8322    2.1234 C   0  0  0  0  0  0  0  0  0  0  0  0
    8.3173   -9.7079    2.8989 C   0  0  0  0  0  0  0  0  0  0  0  0
    8.5339   -8.6149    2.0857 C   0  0  0  0  0  0  0  0  0  0  0  0
    8.6403   -7.2610    2.5817 N   0  0  0  0  0  0  0  0  0  0  0  0
    8.4484   -6.9514    3.9402 C   0  0  0  0  0  0  0  0  0  0  0  0
    7.9211   -7.8074    4.6839 O   0  0  0  0  0  0  0  0  0  0  0  0
    8.8375   -5.6807    4.5081 C   0  0  0  0  0  0  0  0  0  0  0  0
    9.5506   -4.6909    3.8499 C   0  0  0  0  0  0  0  0  0  0  0  0
    9.7372   -3.6589    4.7065 N   0  0  0  0  0  0  0  0  0  0  0  0
   10.4595   -2.4738    4.3041 C   0  0  0  0  0  0  0  0  0  0  0  0
   10.6695   -1.5132    5.4790 C   0  0  0  0  0  0  0  0  0  0  0  0
   11.5312   -2.6442    3.3049 C   0  0  0  0  0  0  0  0  0  0  0  0
   10.3040   -1.8560    2.9844 C   0  0  0  0  0  0  0  0  0  0  0  0
    9.1649   -3.9556    5.8929 C   0  0  0  0  0  0  0  0  0  0  0  0
    9.0972   -3.2401    7.0423 N   0  0  0  0  0  0  0  0  0  0  0  0
    8.4530   -3.8128    8.0770 C   0  0  0  0  0  0  0  0  0  0  0  0
    7.8983   -5.0303    7.9907 N   0  0  0  0  0  0  0  0  0  0  0  0
    7.9547   -5.7513    6.8646 C   0  0  0  0  0  0  0  0  0  0  0  0
    7.3707   -7.0458    6.7464 N   0  0  0  0  0  0  0  0  0  0  0  0
    8.6018   -5.2241    5.7654 C   0  0  0  0  0  0  0  0  0  0  0  0
    8.6026   -9.0775    0.8428 N   0  0  0  0  0  0  0  0  0  0  0  0
    8.4370  -10.4101    0.8605 N   0  0  0  0  0  0  0  0  0  0  0  0
  1  2  1  0
  2  3  2  0
  3  4  1  0
  4  5  1  0
  5  6  1  0
  6  7  2  0
  6  8  1  0
  8  9  2  0
  9 10  1  0
 10 11  1  0
 11 12  1  0
 11 13  1  0
 13 14  1  0
 10 15  1  0
 15 16  2  0
 16 17  1  0
 17 18  2  0
 18 19  1  0
 19 20  1  0
 19 21  2  0
  4 22  2  0
 22 23  1  0
 23  2  1  0
 21  8  1  0
 14 11  1  0
 21 15  1  0
M  END
$$$$
