
     RDKit          3D

 23 26  0  0  0  0  0  0  0  0999 V2000
    7.6515  -12.3309    2.6170 C   0  0  0  0  0  0  0  0  0  0  0  0
    7.8319  -10.9272    2.1466 C   0  0  0  0  0  0  0  0  0  0  0  0
    7.8567   -9.7793    2.8885 C   0  0  0  0  0  0  0  0  0  0  0  0
    8.0539   -8.7058    2.0449 C   0  0  0  0  0  0  0  0  0  0  0  0
    8.1226   -7.3356    2.5010 N   0  0  0  0  0  0  0  0  0  0  0  0
    8.1355   -7.0089    3.8690 C   0  0  0  0  0  0  0  0  0  0  0  0
    7.6795   -7.8352    4.6894 O   0  0  0  0  0  0  0  0  0  0  0  0
    8.6556   -5.7536    4.3612 C   0  0  0  0  0  0  0  0  0  0  0  0
    9.4564   -4.8788    3.6437 C   0  0  0  0  0  0  0  0  0  0  0  0
    9.7545   -3.8242    4.4390 N   0  0  0  0  0  0  0  0  0  0  0  0
   10.5868   -2.7419    3.9657 C   0  0  0  0  0  0  0  0  0  0  0  0
   12.0397   -2.9033    4.4242 C   0  0  0  0  0  0  0  0  0  0  0  0
   10.3053   -2.2152    2.6167 C   0  0  0  0  0  0  0  0  0  0  0  0
   10.1019   -1.3658    3.8280 C   0  0  0  0  0  0  0  0  0  0  0  0
    9.1687   -3.9948    5.6435 C   0  0  0  0  0  0  0  0  0  0  0  0
    9.1855   -3.2125    6.7505 N   0  0  0  0  0  0  0  0  0  0  0  0
    8.4988   -3.6587    7.8196 C   0  0  0  0  0  0  0  0  0  0  0  0
    7.8246   -4.8174    7.8061 N   0  0  0  0  0  0  0  0  0  0  0  0
    7.7964   -5.6026    6.7227 C   0  0  0  0  0  0  0  0  0  0  0  0
    7.0849   -6.8367    6.6817 N   0  0  0  0  0  0  0  0  0  0  0  0
    8.4805   -5.2057    5.5916 C   0  0  0  0  0  0  0  0  0  0  0  0
    8.1454   -9.2034    0.8170 N   0  0  0  0  0  0  0  0  0  0  0  0
    8.0123  -10.5385    0.8732 N   0  0  0  0  0  0  0  0  0  0  0  0
  1  2  1  0
  2  3  2  0
  3  4  1  0
  4  5  1  0
  5  6  1  0
  6  7  2  0
  6  8  1  0
  8  9  2  0
  9 10  1  0
 10 11  1  0
 11 12  1  0
 11 13  1  0
 13 14  1  0
 10 15  1  0
 15 16  2  0
 16 17  1  0
 17 18  2  0
 18 19  1  0
 19 20  1  0
 19 21  2  0
  4 22  2  0
 22 23  1  0
 23  2  1  0
 21  8  1  0
 14 11  1  0
 21 15  1  0
M  END
$$$$
