
     RDKit          3D

 23 26  0  0  0  0  0  0  0  0999 V2000
    7.8033  -12.2121    2.6793 C   0  0  0  0  0  0  0  0  0  0  0  0
    8.0453  -10.8175    2.2096 C   0  0  0  0  0  0  0  0  0  0  0  0
    8.1041   -9.6699    2.9503 C   0  0  0  0  0  0  0  0  0  0  0  0
    8.3553   -8.6066    2.1081 C   0  0  0  0  0  0  0  0  0  0  0  0
    8.4708   -7.2392    2.5633 N   0  0  0  0  0  0  0  0  0  0  0  0
    8.3817   -6.9008    3.9256 C   0  0  0  0  0  0  0  0  0  0  0  0
    7.9033   -7.7367    4.7233 O   0  0  0  0  0  0  0  0  0  0  0  0
    8.8218   -5.6229    4.4372 C   0  0  0  0  0  0  0  0  0  0  0  0
    9.5332   -4.6726    3.7216 C   0  0  0  0  0  0  0  0  0  0  0  0
    9.7763   -3.6191    4.5368 N   0  0  0  0  0  0  0  0  0  0  0  0
   10.5110   -2.4657    4.0700 C   0  0  0  0  0  0  0  0  0  0  0  0
   10.3764   -1.2815    5.0327 C   0  0  0  0  0  0  0  0  0  0  0  0
   11.8019   -2.7143    3.4006 C   0  0  0  0  0  0  0  0  0  0  0  0
   10.6502   -2.1312    2.6500 C   0  0  0  0  0  0  0  0  0  0  0  0
    9.2419   -3.8637    5.7524 C   0  0  0  0  0  0  0  0  0  0  0  0
    9.2343   -3.1107    6.8796 N   0  0  0  0  0  0  0  0  0  0  0  0
    8.6156   -3.6342    7.9552 C   0  0  0  0  0  0  0  0  0  0  0  0
    8.0293   -4.8395    7.9289 N   0  0  0  0  0  0  0  0  0  0  0  0
    8.0264   -5.5969    6.8256 C   0  0  0  0  0  0  0  0  0  0  0  0
    7.4076   -6.8795    6.7709 N   0  0  0  0  0  0  0  0  0  0  0  0
    8.6442   -5.1211    5.6868 C   0  0  0  0  0  0  0  0  0  0  0  0
    8.4451   -9.1097    0.8824 N   0  0  0  0  0  0  0  0  0  0  0  0
    8.2592  -10.4386    0.9385 N   0  0  0  0  0  0  0  0  0  0  0  0
  1  2  1  0
  2  3  2  0
  3  4  1  0
  4  5  1  0
  5  6  1  0
  6  7  2  0
  6  8  1  0
  8  9  2  0
  9 10  1  0
 10 11  1  0
 11 12  1  0
 11 13  1  0
 13 14  1  0
 10 15  1  0
 15 16  2  0
 16 17  1  0
 17 18  2  0
 18 19  1  0
 19 20  1  0
 19 21  2  0
  4 22  2  0
 22 23  1  0
 23  2  1  0
 21  8  1  0
 14 11  1  0
 21 15  1  0
M  END
$$$$
