
     RDKit          3D

 23 26  0  0  0  0  0  0  0  0999 V2000
    7.8142  -12.2470    2.4666 C   0  0  0  0  0  0  0  0  0  0  0  0
    8.1043  -10.8465    2.0439 C   0  0  0  0  0  0  0  0  0  0  0  0
    8.1659   -9.7212    2.8178 C   0  0  0  0  0  0  0  0  0  0  0  0
    8.4697   -8.6420    2.0141 C   0  0  0  0  0  0  0  0  0  0  0  0
    8.6025   -7.2906    2.5106 N   0  0  0  0  0  0  0  0  0  0  0  0
    8.4590   -6.9845    3.8759 C   0  0  0  0  0  0  0  0  0  0  0  0
    7.9887   -7.8544    4.6415 O   0  0  0  0  0  0  0  0  0  0  0  0
    8.8342   -5.7021    4.4264 C   0  0  0  0  0  0  0  0  0  0  0  0
    9.5386   -4.7146    3.7554 C   0  0  0  0  0  0  0  0  0  0  0  0
    9.7133   -3.6688    4.5977 N   0  0  0  0  0  0  0  0  0  0  0  0
   10.4244   -2.4823    4.1798 C   0  0  0  0  0  0  0  0  0  0  0  0
   10.6778   -1.5316    5.3541 C   0  0  0  0  0  0  0  0  0  0  0  0
   11.4604   -2.6474    3.1426 C   0  0  0  0  0  0  0  0  0  0  0  0
   10.2250   -1.8537    2.8711 C   0  0  0  0  0  0  0  0  0  0  0  0
    9.1418   -3.9544    5.7872 C   0  0  0  0  0  0  0  0  0  0  0  0
    9.0648   -3.2233    6.9262 N   0  0  0  0  0  0  0  0  0  0  0  0
    8.4243   -3.7878    7.9677 C   0  0  0  0  0  0  0  0  0  0  0  0
    7.8820   -5.0118    7.8978 N   0  0  0  0  0  0  0  0  0  0  0  0
    7.9478   -5.7481    6.7822 C   0  0  0  0  0  0  0  0  0  0  0  0
    7.3769   -7.0499    6.6813 N   0  0  0  0  0  0  0  0  0  0  0  0
    8.5916   -5.2301    5.6767 C   0  0  0  0  0  0  0  0  0  0  0  0
    8.5877   -9.1137    0.7784 N   0  0  0  0  0  0  0  0  0  0  0  0
    8.3687  -10.4386    0.7914 N   0  0  0  0  0  0  0  0  0  0  0  0
  1  2  1  0
  2  3  2  0
  3  4  1  0
  4  5  1  0
  5  6  1  0
  6  7  2  0
  6  8  1  0
  8  9  2  0
  9 10  1  0
 10 11  1  0
 11 12  1  0
 11 13  1  0
 13 14  1  0
 10 15  1  0
 15 16  2  0
 16 17  1  0
 17 18  2  0
 18 19  1  0
 19 20  1  0
 19 21  2  0
  4 22  2  0
 22 23  1  0
 23  2  1  0
 21  8  1  0
 14 11  1  0
 21 15  1  0
M  END
$$$$
