
     RDKit          3D

 23 26  0  0  0  0  0  0  0  0999 V2000
    8.1536  -12.1736    2.6006 C   0  0  0  0  0  0  0  0  0  0  0  0
    8.2489  -10.7540    2.1535 C   0  0  0  0  0  0  0  0  0  0  0  0
    8.2272   -9.6199    2.9166 C   0  0  0  0  0  0  0  0  0  0  0  0
    8.3494   -8.5224    2.0898 C   0  0  0  0  0  0  0  0  0  0  0  0
    8.3538   -7.1588    2.5705 N   0  0  0  0  0  0  0  0  0  0  0  0
    8.3492   -6.8565    3.9441 C   0  0  0  0  0  0  0  0  0  0  0  0
    7.9655   -7.7310    4.7516 O   0  0  0  0  0  0  0  0  0  0  0  0
    8.7708   -5.5727    4.4566 C   0  0  0  0  0  0  0  0  0  0  0  0
    9.4926   -4.6231    3.7504 C   0  0  0  0  0  0  0  0  0  0  0  0
    9.7116   -3.5628    4.5636 N   0  0  0  0  0  0  0  0  0  0  0  0
   10.4502   -2.4084    4.1053 C   0  0  0  0  0  0  0  0  0  0  0  0
   10.4635   -1.2922    5.1547 C   0  0  0  0  0  0  0  0  0  0  0  0
   11.6577   -2.6584    3.2957 C   0  0  0  0  0  0  0  0  0  0  0  0
   10.4670   -1.9783    2.7044 C   0  0  0  0  0  0  0  0  0  0  0  0
    9.1517   -3.8023    5.7687 C   0  0  0  0  0  0  0  0  0  0  0  0
    9.1148   -3.0417    6.8903 N   0  0  0  0  0  0  0  0  0  0  0  0
    8.4753   -3.5615    7.9554 C   0  0  0  0  0  0  0  0  0  0  0  0
    7.8964   -4.7703    7.9244 N   0  0  0  0  0  0  0  0  0  0  0  0
    7.9222   -5.5351    6.8265 C   0  0  0  0  0  0  0  0  0  0  0  0
    7.3120   -6.8215    6.7669 N   0  0  0  0  0  0  0  0  0  0  0  0
    8.5626   -5.0635    5.6985 C   0  0  0  0  0  0  0  0  0  0  0  0
    8.4424   -8.9921    0.8512 N   0  0  0  0  0  0  0  0  0  0  0  0
    8.3823  -10.3333    0.8845 N   0  0  0  0  0  0  0  0  0  0  0  0
  1  2  1  0
  2  3  2  0
  3  4  1  0
  4  5  1  0
  5  6  1  0
  6  7  2  0
  6  8  1  0
  8  9  2  0
  9 10  1  0
 10 11  1  0
 11 12  1  0
 11 13  1  0
 13 14  1  0
 10 15  1  0
 15 16  2  0
 16 17  1  0
 17 18  2  0
 18 19  1  0
 19 20  1  0
 19 21  2  0
  4 22  2  0
 22 23  1  0
 23  2  1  0
 21  8  1  0
 14 11  1  0
 21 15  1  0
M  END
$$$$
