
     RDKit          3D

 23 26  0  0  0  0  0  0  0  0999 V2000
   30.5984    9.4553  -25.2253 C   0  0  0  0  0  0  0  0  0  0  0  0
   29.3601    9.9493  -24.5568 C   0  0  0  0  0  0  0  0  0  0  0  0
   28.4369   10.8397  -25.0300 C   0  0  0  0  0  0  0  0  0  0  0  0
   27.4475   11.0036  -24.0827 C   0  0  0  0  0  0  0  0  0  0  0  0
   26.3161   11.8867  -24.2565 N   0  0  0  0  0  0  0  0  0  0  0  0
   26.1509   12.6609  -25.4191 C   0  0  0  0  0  0  0  0  0  0  0  0
   27.1193   12.7879  -26.2002 O   0  0  0  0  0  0  0  0  0  0  0  0
   24.9040   13.3152  -25.7441 C   0  0  0  0  0  0  0  0  0  0  0  0
   23.6574   12.9576  -25.2547 C   0  0  0  0  0  0  0  0  0  0  0  0
   22.7337   13.7881  -25.7937 N   0  0  0  0  0  0  0  0  0  0  0  0
   21.3308   13.6555  -25.4735 C   0  0  0  0  0  0  0  0  0  0  0  0
   20.7561   14.9549  -24.9003 C   0  0  0  0  0  0  0  0  0  0  0  0
   20.5067   12.8353  -26.3815 C   0  0  0  0  0  0  0  0  0  0  0  0
   20.7431   12.4113  -24.9693 C   0  0  0  0  0  0  0  0  0  0  0  0
   23.3492   14.6679  -26.6123 C   0  0  0  0  0  0  0  0  0  0  0  0
   22.8422   15.6747  -27.3653 N   0  0  0  0  0  0  0  0  0  0  0  0
   23.7205   16.3886  -28.0951 C   0  0  0  0  0  0  0  0  0  0  0  0
   25.0360   16.1304  -28.0874 N   0  0  0  0  0  0  0  0  0  0  0  0
   25.5548   15.1411  -27.3504 C   0  0  0  0  0  0  0  0  0  0  0  0
   26.9492   14.8484  -27.3224 N   0  0  0  0  0  0  0  0  0  0  0  0
   24.7101   14.3686  -26.5792 C   0  0  0  0  0  0  0  0  0  0  0  0
   27.7736   10.2240  -23.0584 N   0  0  0  0  0  0  0  0  0  0  0  0
   28.9229    9.5882  -23.3388 N   0  0  0  0  0  0  0  0  0  0  0  0
  1  2  1  0
  2  3  2  0
  3  4  1  0
  4  5  1  0
  5  6  1  0
  6  7  2  0
  6  8  1  0
  8  9  2  0
  9 10  1  0
 10 11  1  0
 11 12  1  0
 11 13  1  0
 13 14  1  0
 10 15  1  0
 15 16  2  0
 16 17  1  0
 17 18  2  0
 18 19  1  0
 19 20  1  0
 19 21  2  0
  4 22  2  0
 22 23  1  0
 23  2  1  0
 21  8  1  0
 14 11  1  0
 21 15  1  0
M  END
$$$$
