
     RDKit          3D

 23 26  0  0  0  0  0  0  0  0999 V2000
    8.3213  -12.1330    2.3890 C   0  0  0  0  0  0  0  0  0  0  0  0
    8.3785  -10.7029    1.9696 C   0  0  0  0  0  0  0  0  0  0  0  0
    8.3464   -9.5851    2.7560 C   0  0  0  0  0  0  0  0  0  0  0  0
    8.4305   -8.4688    1.9499 C   0  0  0  0  0  0  0  0  0  0  0  0
    8.4145   -7.1155    2.4583 N   0  0  0  0  0  0  0  0  0  0  0  0
    8.3690   -6.8415    3.8371 C   0  0  0  0  0  0  0  0  0  0  0  0
    7.9862   -7.7409    4.6171 O   0  0  0  0  0  0  0  0  0  0  0  0
    8.7476   -5.5591    4.3855 C   0  0  0  0  0  0  0  0  0  0  0  0
    9.4452   -4.5703    3.7094 C   0  0  0  0  0  0  0  0  0  0  0  0
    9.6260   -3.5250    4.5510 N   0  0  0  0  0  0  0  0  0  0  0  0
   10.3323   -2.3374    4.1281 C   0  0  0  0  0  0  0  0  0  0  0  0
   10.3093   -1.2509    5.2080 C   0  0  0  0  0  0  0  0  0  0  0  0
   11.5496   -2.5298    3.3172 C   0  0  0  0  0  0  0  0  0  0  0  0
   10.3417   -1.8683    2.7398 C   0  0  0  0  0  0  0  0  0  0  0  0
    9.0651   -3.8123    5.7451 C   0  0  0  0  0  0  0  0  0  0  0  0
    8.9970   -3.0823    6.8854 N   0  0  0  0  0  0  0  0  0  0  0  0
    8.3661   -3.6484    7.9319 C   0  0  0  0  0  0  0  0  0  0  0  0
    7.8245   -4.8729    7.8656 N   0  0  0  0  0  0  0  0  0  0  0  0
    7.8815   -5.6082    6.7488 C   0  0  0  0  0  0  0  0  0  0  0  0
    7.3112   -6.9105    6.6516 N   0  0  0  0  0  0  0  0  0  0  0  0
    8.5153   -5.0885    5.6382 C   0  0  0  0  0  0  0  0  0  0  0  0
    8.5114   -8.9114    0.7005 N   0  0  0  0  0  0  0  0  0  0  0  0
    8.4803  -10.2540    0.7073 N   0  0  0  0  0  0  0  0  0  0  0  0
  1  2  1  0
  2  3  2  0
  3  4  1  0
  4  5  1  0
  5  6  1  0
  6  7  2  0
  6  8  1  0
  8  9  2  0
  9 10  1  0
 10 11  1  0
 11 12  1  0
 11 13  1  0
 13 14  1  0
 10 15  1  0
 15 16  2  0
 16 17  1  0
 17 18  2  0
 18 19  1  0
 19 20  1  0
 19 21  2  0
  4 22  2  0
 22 23  1  0
 23  2  1  0
 21  8  1  0
 14 11  1  0
 21 15  1  0
M  END
$$$$
