
     RDKit          3D

 23 26  0  0  0  0  0  0  0  0999 V2000
    7.8316  -12.2399    2.6452 C   0  0  0  0  0  0  0  0  0  0  0  0
    8.1270  -10.8496    2.1934 C   0  0  0  0  0  0  0  0  0  0  0  0
    8.1384   -9.7003    2.9336 C   0  0  0  0  0  0  0  0  0  0  0  0
    8.4697   -8.6427    2.1122 C   0  0  0  0  0  0  0  0  0  0  0  0
    8.5633   -7.2752    2.5720 N   0  0  0  0  0  0  0  0  0  0  0  0
    8.3727   -6.9320    3.9226 C   0  0  0  0  0  0  0  0  0  0  0  0
    7.8461   -7.7693    4.6878 O   0  0  0  0  0  0  0  0  0  0  0  0
    8.7623   -5.6476    4.4584 C   0  0  0  0  0  0  0  0  0  0  0  0
    9.4998   -4.6862    3.7852 C   0  0  0  0  0  0  0  0  0  0  0  0
    9.6783   -3.6293    4.6126 N   0  0  0  0  0  0  0  0  0  0  0  0
   10.4214   -2.4646    4.1890 C   0  0  0  0  0  0  0  0  0  0  0  0
    9.9830   -1.2074    4.9470 C   0  0  0  0  0  0  0  0  0  0  0  0
   11.8475   -2.6563    3.8639 C   0  0  0  0  0  0  0  0  0  0  0  0
   10.8676   -2.2635    2.8077 C   0  0  0  0  0  0  0  0  0  0  0  0
    9.0770   -3.8824    5.7948 C   0  0  0  0  0  0  0  0  0  0  0  0
    8.9915   -3.1298    6.9191 N   0  0  0  0  0  0  0  0  0  0  0  0
    8.3187   -3.6630    7.9568 C   0  0  0  0  0  0  0  0  0  0  0  0
    7.7535   -4.8772    7.8969 N   0  0  0  0  0  0  0  0  0  0  0  0
    7.8273   -5.6343    6.7958 C   0  0  0  0  0  0  0  0  0  0  0  0
    7.2326   -6.9263    6.7056 N   0  0  0  0  0  0  0  0  0  0  0  0
    8.5037   -5.1488    5.6950 C   0  0  0  0  0  0  0  0  0  0  0  0
    8.6533   -9.1509    0.8991 N   0  0  0  0  0  0  0  0  0  0  0  0
    8.4482  -10.4774    0.9430 N   0  0  0  0  0  0  0  0  0  0  0  0
  1  2  1  0
  2  3  2  0
  3  4  1  0
  4  5  1  0
  5  6  1  0
  6  7  2  0
  6  8  1  0
  8  9  2  0
  9 10  1  0
 10 11  1  0
 11 12  1  0
 11 13  1  0
 13 14  1  0
 10 15  1  0
 15 16  2  0
 16 17  1  0
 17 18  2  0
 18 19  1  0
 19 20  1  0
 19 21  2  0
  4 22  2  0
 22 23  1  0
 23  2  1  0
 21  8  1  0
 14 11  1  0
 21 15  1  0
M  END
$$$$
