
     RDKit          3D

 23 26  0  0  0  0  0  0  0  0999 V2000
   30.5348    9.4946  -25.3839 C   0  0  0  0  0  0  0  0  0  0  0  0
   29.3005    9.9586  -24.6872 C   0  0  0  0  0  0  0  0  0  0  0  0
   28.3256   10.7957  -25.1538 C   0  0  0  0  0  0  0  0  0  0  0  0
   27.3630   10.9489  -24.1776 C   0  0  0  0  0  0  0  0  0  0  0  0
   26.1906   11.7797  -24.3375 N   0  0  0  0  0  0  0  0  0  0  0  0
   26.0673   12.6918  -25.4011 C   0  0  0  0  0  0  0  0  0  0  0  0
   27.0680   12.9235  -26.1143 O   0  0  0  0  0  0  0  0  0  0  0  0
   24.8272   13.3714  -25.6995 C   0  0  0  0  0  0  0  0  0  0  0  0
   23.5856   13.0439  -25.1776 C   0  0  0  0  0  0  0  0  0  0  0  0
   22.6672   13.8914  -25.6991 N   0  0  0  0  0  0  0  0  0  0  0  0
   21.2700   13.7913  -25.3439 C   0  0  0  0  0  0  0  0  0  0  0  0
   20.3967   14.6909  -26.2243 C   0  0  0  0  0  0  0  0  0  0  0  0
   20.7701   12.4629  -24.9418 C   0  0  0  0  0  0  0  0  0  0  0  0
   20.8106   13.5930  -23.9665 C   0  0  0  0  0  0  0  0  0  0  0  0
   23.2814   14.7528  -26.5379 C   0  0  0  0  0  0  0  0  0  0  0  0
   22.7781   15.7662  -27.2846 N   0  0  0  0  0  0  0  0  0  0  0  0
   23.6535   16.4565  -28.0400 C   0  0  0  0  0  0  0  0  0  0  0  0
   24.9629   16.1696  -28.0629 N   0  0  0  0  0  0  0  0  0  0  0  0
   25.4780   15.1734  -27.3326 C   0  0  0  0  0  0  0  0  0  0  0  0
   26.8660   14.8505  -27.3368 N   0  0  0  0  0  0  0  0  0  0  0  0
   24.6358   14.4240  -26.5362 C   0  0  0  0  0  0  0  0  0  0  0  0
   27.7557   10.2152  -23.1427 N   0  0  0  0  0  0  0  0  0  0  0  0
   28.9202    9.6181  -23.4444 N   0  0  0  0  0  0  0  0  0  0  0  0
  1  2  1  0
  2  3  2  0
  3  4  1  0
  4  5  1  0
  5  6  1  0
  6  7  2  0
  6  8  1  0
  8  9  2  0
  9 10  1  0
 10 11  1  0
 11 12  1  0
 11 13  1  0
 13 14  1  0
 10 15  1  0
 15 16  2  0
 16 17  1  0
 17 18  2  0
 18 19  1  0
 19 20  1  0
 19 21  2  0
  4 22  2  0
 22 23  1  0
 23  2  1  0
 21  8  1  0
 14 11  1  0
 21 15  1  0
M  END
$$$$
