
     RDKit          3D

 23 26  0  0  0  0  0  0  0  0999 V2000
    8.0347  -12.2698    2.6149 C   0  0  0  0  0  0  0  0  0  0  0  0
    8.1839  -10.8566    2.1622 C   0  0  0  0  0  0  0  0  0  0  0  0
    8.1147   -9.7137    2.9091 C   0  0  0  0  0  0  0  0  0  0  0  0
    8.3174   -8.6272    2.0836 C   0  0  0  0  0  0  0  0  0  0  0  0
    8.3000   -7.2584    2.5488 N   0  0  0  0  0  0  0  0  0  0  0  0
    8.2509   -6.9409    3.9181 C   0  0  0  0  0  0  0  0  0  0  0  0
    7.8571   -7.8121    4.7242 O   0  0  0  0  0  0  0  0  0  0  0  0
    8.6380   -5.6451    4.4277 C   0  0  0  0  0  0  0  0  0  0  0  0
    9.3746   -4.6966    3.7354 C   0  0  0  0  0  0  0  0  0  0  0  0
    9.5506   -3.6226    4.5410 N   0  0  0  0  0  0  0  0  0  0  0  0
   10.2923   -2.4657    4.0941 C   0  0  0  0  0  0  0  0  0  0  0  0
   10.5745   -1.4953    5.2456 C   0  0  0  0  0  0  0  0  0  0  0  0
   11.3204   -2.6826    3.0587 C   0  0  0  0  0  0  0  0  0  0  0  0
   10.1060   -1.8623    2.7717 C   0  0  0  0  0  0  0  0  0  0  0  0
    8.9488   -3.8522    5.7276 C   0  0  0  0  0  0  0  0  0  0  0  0
    8.8611   -3.0768    6.8361 N   0  0  0  0  0  0  0  0  0  0  0  0
    8.1884   -3.5896    7.8840 C   0  0  0  0  0  0  0  0  0  0  0  0
    7.6251   -4.8057    7.8487 N   0  0  0  0  0  0  0  0  0  0  0  0
    7.7010   -5.5852    6.7635 C   0  0  0  0  0  0  0  0  0  0  0  0
    7.1085   -6.8797    6.6995 N   0  0  0  0  0  0  0  0  0  0  0  0
    8.3776   -5.1214    5.6535 C   0  0  0  0  0  0  0  0  0  0  0  0
    8.5047   -9.1122    0.8616 N   0  0  0  0  0  0  0  0  0  0  0  0
    8.4251  -10.4521    0.9040 N   0  0  0  0  0  0  0  0  0  0  0  0
  1  2  1  0
  2  3  2  0
  3  4  1  0
  4  5  1  0
  5  6  1  0
  6  7  2  0
  6  8  1  0
  8  9  2  0
  9 10  1  0
 10 11  1  0
 11 12  1  0
 11 13  1  0
 13 14  1  0
 10 15  1  0
 15 16  2  0
 16 17  1  0
 17 18  2  0
 18 19  1  0
 19 20  1  0
 19 21  2  0
  4 22  2  0
 22 23  1  0
 23  2  1  0
 21  8  1  0
 14 11  1  0
 21 15  1  0
M  END
$$$$
