6M73_FNR_holo_aligned_esmfold_protein
     RDKit          3D

 31 33  0  0  0  0  0  0  0  0999 V2000
   27.4893    8.5222   32.6640 C   0  0  0  0  0  0  0  0  0  0  0  0
   27.6423    9.0643   34.0210 C   0  0  0  0  0  0  0  0  0  0  0  0
   28.8974    8.9892   34.5914 C   0  0  0  0  0  0  0  0  0  0  0  0
   29.0564    9.2920   35.9179 C   0  0  0  0  0  0  0  0  0  0  0  0
   27.9368    9.6149   36.7183 C   0  0  0  0  0  0  0  0  0  0  0  0
   26.7067    9.8151   36.0944 C   0  0  0  0  0  0  0  0  0  0  0  0
   26.5587    9.5920   34.7355 C   0  0  0  0  0  0  0  0  0  0  0  0
   25.2456    9.9225   34.0923 C   0  0  0  0  0  0  0  0  0  0  0  0
   28.0812    9.7310   38.1082 N   0  0  0  0  0  0  0  0  0  0  0  0
   26.9216    9.8149   39.0203 C   0  0  0  0  0  0  0  0  0  0  0  0
   26.6103   11.2973   39.3105 C   0  0  2  0  0  0  0  0  0  0  0  0
   27.5977   11.9115   40.1419 O   0  0  0  0  0  0  0  0  0  0  0  0
   25.2709   11.4639   40.0098 C   0  0  2  0  0  0  0  0  0  0  0  0
   25.2301   10.6259   41.1827 O   0  0  0  0  0  0  0  0  0  0  0  0
   24.0972   11.2183   39.0349 C   0  0  2  0  0  0  0  0  0  0  0  0
   24.2394   11.8877   37.7543 O   0  0  0  0  0  0  0  0  0  0  0  0
   22.8378   11.7726   39.6994 C   0  0  0  0  0  0  0  0  0  0  0  0
   21.7123   11.6482   38.8143 O   0  0  0  0  0  0  0  0  0  0  0  0
   20.9141   13.0215   38.5784 P   0  0  0  0  0  5  0  0  0  0  0  0
   21.5321   13.8547   37.5595 O   0  0  0  0  0  0  0  0  0  0  0  0
   19.5358   12.6041   37.9394 O   0  0  0  0  0  0  0  0  0  0  0  0
   20.7295   13.8930   39.8849 O   0  0  0  0  0  0  0  0  0  0  0  0
   29.3809    9.6897   38.6141 C   0  0  0  0  0  0  0  0  0  0  0  0
   29.5389    9.9405   39.9602 N   0  0  0  0  0  0  0  0  0  0  0  0
   30.7855   10.0587   40.4765 C   0  0  0  0  0  0  0  0  0  0  0  0
   30.8146   10.1361   41.6773 O   0  0  0  0  0  0  0  0  0  0  0  0
   31.9154    9.8071   39.7643 N   0  0  0  0  0  0  0  0  0  0  0  0
   31.7906    9.6250   38.4267 C   0  0  0  0  0  0  0  0  0  0  0  0
   32.8516    9.4621   37.8457 O   0  0  0  0  0  0  0  0  0  0  0  0
   30.4861    9.4978   37.7968 C   0  0  0  0  0  0  0  0  0  0  0  0
   30.3405    9.2628   36.4293 N   0  0  0  0  0  0  0  0  0  0  0  0
  1  2  1  0
  2  3  2  0
  3  4  1  0
  4  5  2  0
  5  6  1  0
  6  7  2  0
  7  8  1  0
  5  9  1  0
  9 10  1  0
 10 11  1  0
 11 12  1  1
 11 13  1  0
 13 14  1  1
 13 15  1  0
 15 16  1  6
 15 17  1  0
 17 18  1  0
 18 19  1  0
 19 20  2  0
 19 21  1  0
 19 22  1  0
  9 23  1  0
 23 24  1  0
 24 25  1  0
 25 26  2  0
 25 27  1  0
 27 28  1  0
 28 29  2  0
 28 30  1  0
 30 31  1  0
  7  2  1  0
 30 23  2  0
 31  4  1  0
M  END
