
     RDKit          3D

 31 33  0  0  0  0  0  0  0  0999 V2000
   27.1914    9.2748   32.6398 C   0  0  0  0  0  0  0  0  0  0  0  0
   27.4670    9.4080   34.0906 C   0  0  0  0  0  0  0  0  0  0  0  0
   28.7590    9.4110   34.5676 C   0  0  0  0  0  0  0  0  0  0  0  0
   29.0017    9.5357   35.9250 C   0  0  0  0  0  0  0  0  0  0  0  0
   27.9461    9.6595   36.8275 C   0  0  0  0  0  0  0  0  0  0  0  0
   26.6797    9.6522   36.3060 C   0  0  0  0  0  0  0  0  0  0  0  0
   26.3918    9.5279   34.9391 C   0  0  0  0  0  0  0  0  0  0  0  0
   25.0002    9.5264   34.4398 C   0  0  0  0  0  0  0  0  0  0  0  0
   28.1704    9.8001   38.2343 N   0  0  0  0  0  0  0  0  0  0  0  0
   27.0682    9.8772   39.1216 C   0  0  0  0  0  0  0  0  0  0  0  0
   26.6458   11.2385   39.5578 C   0  0  2  0  0  0  0  0  0  0  0  0
   27.3865   11.8218   40.5660 O   0  0  0  0  0  0  0  0  0  0  0  0
   25.2244   11.0908   40.1026 C   0  0  2  0  0  0  0  0  0  0  0  0
   25.1464   10.2843   41.2113 O   0  0  0  0  0  0  0  0  0  0  0  0
   24.2696   10.6663   39.0125 C   0  0  2  0  0  0  0  0  0  0  0  0
   24.3669   11.5039   37.8990 O   0  0  0  0  0  0  0  0  0  0  0  0
   22.8562   10.8448   39.5383 C   0  0  0  0  0  0  0  0  0  0  0  0
   22.3900   12.1154   39.1677 O   0  0  0  0  0  0  0  0  0  0  0  0
   21.4274   12.0371   37.7915 P   0  0  0  0  0  5  0  0  0  0  0  0
   22.1952   11.7592   36.5425 O   0  0  0  0  0  0  0  0  0  0  0  0
   20.2755   10.8063   38.0160 O   0  0  0  0  0  0  0  0  0  0  0  0
   20.6134   13.5182   37.5655 O   0  0  0  0  0  0  0  0  0  0  0  0
   29.5361    9.8114   38.6946 C   0  0  0  0  0  0  0  0  0  0  0  0
   29.7646    9.9347   40.0063 N   0  0  0  0  0  0  0  0  0  0  0  0
   31.0600    9.9387   40.4364 C   0  0  0  0  0  0  0  0  0  0  0  0
   31.2327   10.0574   41.6809 O   0  0  0  0  0  0  0  0  0  0  0  0
   32.0953    9.8236   39.5936 N   0  0  0  0  0  0  0  0  0  0  0  0
   31.8736    9.6990   38.2799 C   0  0  0  0  0  0  0  0  0  0  0  0
   32.8142    9.5861   37.4325 O   0  0  0  0  0  0  0  0  0  0  0  0
   30.5966    9.6880   37.7862 C   0  0  0  0  0  0  0  0  0  0  0  0
   30.3322    9.5490   36.3935 N   0  0  0  0  0  0  0  0  0  0  0  0
  1  2  1  0
  2  3  2  0
  3  4  1  0
  4  5  2  0
  5  6  1  0
  6  7  2  0
  7  8  1  0
  5  9  1  0
  9 10  1  0
 10 11  1  0
 11 12  1  1
 11 13  1  0
 13 14  1  1
 13 15  1  0
 15 16  1  6
 15 17  1  0
 17 18  1  0
 18 19  1  0
 19 20  2  0
 19 21  1  0
 19 22  1  0
  9 23  1  0
 23 24  1  0
 24 25  1  0
 25 26  2  0
 25 27  1  0
 27 28  1  0
 28 29  2  0
 28 30  1  0
 30 31  1  0
  7  2  1  0
 30 23  2  0
 31  4  1  0
M  END
$$$$
