
     RDKit          3D

 31 33  0  0  0  0  0  0  0  0999 V2000
   27.2893    9.3033   32.6029 C   0  0  0  0  0  0  0  0  0  0  0  0
   27.5287    9.3998   34.0630 C   0  0  0  0  0  0  0  0  0  0  0  0
   28.8080    9.3779   34.5728 C   0  0  0  0  0  0  0  0  0  0  0  0
   29.0168    9.4686   35.9385 C   0  0  0  0  0  0  0  0  0  0  0  0
   27.9396    9.5826   36.8164 C   0  0  0  0  0  0  0  0  0  0  0  0
   26.6870    9.6008   36.2627 C   0  0  0  0  0  0  0  0  0  0  0  0
   26.4333    9.5114   34.8863 C   0  0  0  0  0  0  0  0  0  0  0  0
   25.0550    9.5363   34.3517 C   0  0  0  0  0  0  0  0  0  0  0  0
   28.1289    9.6881   38.2314 N   0  0  0  0  0  0  0  0  0  0  0  0
   27.0051    9.7563   39.0918 C   0  0  0  0  0  0  0  0  0  0  0  0
   26.6280   11.1039   39.6054 C   0  0  2  0  0  0  0  0  0  0  0  0
   27.4183   11.6255   40.6098 O   0  0  0  0  0  0  0  0  0  0  0  0
   25.2253   10.9585   40.1974 C   0  0  2  0  0  0  0  0  0  0  0  0
   25.1286    9.9561   41.1309 O   0  0  0  0  0  0  0  0  0  0  0  0
   24.1892   10.8321   39.1062 C   0  0  2  0  0  0  0  0  0  0  0  0
   24.6016   11.4778   37.9384 O   0  0  0  0  0  0  0  0  0  0  0  0
   22.9418   11.5677   39.5635 C   0  0  0  0  0  0  0  0  0  0  0  0
   21.8302   11.0423   38.8873 O   0  0  0  0  0  0  0  0  0  0  0  0
   21.2351   12.1287   37.7506 P   0  0  0  0  0  5  0  0  0  0  0  0
   21.5968   13.5479   38.0366 O   0  0  0  0  0  0  0  0  0  0  0  0
   21.8546   11.6982   36.2264 O   0  0  0  0  0  0  0  0  0  0  0  0
   19.5331   12.0416   37.6975 O   0  0  0  0  0  0  0  0  0  0  0  0
   29.4823    9.6742   38.7265 C   0  0  0  0  0  0  0  0  0  0  0  0
   29.6782    9.7646   40.0462 N   0  0  0  0  0  0  0  0  0  0  0  0
   30.9620    9.7448   40.5093 C   0  0  0  0  0  0  0  0  0  0  0  0
   31.1038    9.8328   41.7602 O   0  0  0  0  0  0  0  0  0  0  0  0
   32.0174    9.6383   39.6907 N   0  0  0  0  0  0  0  0  0  0  0  0
   31.8285    9.5466   38.3692 C   0  0  0  0  0  0  0  0  0  0  0  0
   32.7895    9.4435   37.5437 O   0  0  0  0  0  0  0  0  0  0  0  0
   30.5647    9.5606   37.8429 C   0  0  0  0  0  0  0  0  0  0  0  0
   30.3349    9.4568   36.4410 N   0  0  0  0  0  0  0  0  0  0  0  0
  1  2  1  0
  2  3  2  0
  3  4  1  0
  4  5  2  0
  5  6  1  0
  6  7  2  0
  7  8  1  0
  5  9  1  0
  9 10  1  0
 10 11  1  0
 11 12  1  1
 11 13  1  0
 13 14  1  1
 13 15  1  0
 15 16  1  6
 15 17  1  0
 17 18  1  0
 18 19  1  0
 19 20  2  0
 19 21  1  0
 19 22  1  0
  9 23  1  0
 23 24  1  0
 24 25  1  0
 25 26  2  0
 25 27  1  0
 27 28  1  0
 28 29  2  0
 28 30  1  0
 30 31  1  0
  7  2  1  0
 30 23  2  0
 31  4  1  0
M  END
$$$$
