
     RDKit          3D

 31 33  0  0  0  0  0  0  0  0999 V2000
   27.2411    9.4122   32.6016 C   0  0  0  0  0  0  0  0  0  0  0  0
   27.4867    9.5232   34.0595 C   0  0  0  0  0  0  0  0  0  0  0  0
   28.7619    9.4271   34.5712 C   0  0  0  0  0  0  0  0  0  0  0  0
   28.9766    9.5323   35.9349 C   0  0  0  0  0  0  0  0  0  0  0  0
   27.9096    9.7360   36.8089 C   0  0  0  0  0  0  0  0  0  0  0  0
   26.6608    9.8258   36.2535 C   0  0  0  0  0  0  0  0  0  0  0  0
   26.4013    9.7246   34.8791 C   0  0  0  0  0  0  0  0  0  0  0  0
   25.0277    9.8298   34.3425 C   0  0  0  0  0  0  0  0  0  0  0  0
   28.1058    9.8583   38.2216 N   0  0  0  0  0  0  0  0  0  0  0  0
   26.9892   10.0190   39.0791 C   0  0  0  0  0  0  0  0  0  0  0  0
   26.6506   11.4101   39.4943 C   0  0  2  0  0  0  0  0  0  0  0  0
   27.5066   12.0117   40.3948 O   0  0  0  0  0  0  0  0  0  0  0  0
   25.2894   11.3301   40.1868 C   0  0  2  0  0  0  0  0  0  0  0  0
   25.2747   10.4786   41.2640 O   0  0  0  0  0  0  0  0  0  0  0  0
   24.1953   11.0214   39.1929 C   0  0  2  0  0  0  0  0  0  0  0  0
   24.6033   11.3012   37.8867 O   0  0  0  0  0  0  0  0  0  0  0  0
   23.0364   11.9625   39.4714 C   0  0  0  0  0  0  0  0  0  0  0  0
   21.8360   11.3175   39.1369 O   0  0  0  0  0  0  0  0  0  0  0  0
   21.0658   12.0841   37.8541 P   0  0  0  0  0  5  0  0  0  0  0  0
   19.7330   11.4996   37.5242 O   0  0  0  0  0  0  0  0  0  0  0  0
   20.8642   13.7242   38.2566 O   0  0  0  0  0  0  0  0  0  0  0  0
   22.0268   11.9762   36.4498 O   0  0  0  0  0  0  0  0  0  0  0  0
   29.4554    9.7650   38.7185 C   0  0  0  0  0  0  0  0  0  0  0  0
   29.6572    9.8698   40.0362 N   0  0  0  0  0  0  0  0  0  0  0  0
   30.9370    9.7745   40.5010 C   0  0  0  0  0  0  0  0  0  0  0  0
   31.0846    9.8791   41.7500 O   0  0  0  0  0  0  0  0  0  0  0  0
   31.9828    9.5810   39.6861 N   0  0  0  0  0  0  0  0  0  0  0  0
   31.7879    9.4744   38.3666 C   0  0  0  0  0  0  0  0  0  0  0  0
   32.7397    9.2903   37.5445 O   0  0  0  0  0  0  0  0  0  0  0  0
   30.5276    9.5613   37.8387 C   0  0  0  0  0  0  0  0  0  0  0  0
   30.2911    9.4436   36.4390 N   0  0  0  0  0  0  0  0  0  0  0  0
  1  2  1  0
  2  3  2  0
  3  4  1  0
  4  5  2  0
  5  6  1  0
  6  7  2  0
  7  8  1  0
  5  9  1  0
  9 10  1  0
 10 11  1  0
 11 12  1  1
 11 13  1  0
 13 14  1  1
 13 15  1  0
 15 16  1  6
 15 17  1  0
 17 18  1  0
 18 19  1  0
 19 20  2  0
 19 21  1  0
 19 22  1  0
  9 23  1  0
 23 24  1  0
 24 25  1  0
 25 26  2  0
 25 27  1  0
 27 28  1  0
 28 29  2  0
 28 30  1  0
 30 31  1  0
  7  2  1  0
 30 23  2  0
 31  4  1  0
M  END
$$$$
