
     RDKit          3D

 31 33  0  0  0  0  0  0  0  0999 V2000
   27.2694    9.1880   32.6527 C   0  0  0  0  0  0  0  0  0  0  0  0
   27.5118    9.3494   34.1065 C   0  0  0  0  0  0  0  0  0  0  0  0
   28.7895    9.3085   34.6192 C   0  0  0  0  0  0  0  0  0  0  0  0
   29.0011    9.4604   35.9791 C   0  0  0  0  0  0  0  0  0  0  0  0
   27.9285    9.6559   36.8480 C   0  0  0  0  0  0  0  0  0  0  0  0
   26.6774    9.6902   36.2917 C   0  0  0  0  0  0  0  0  0  0  0  0
   26.4208    9.5406   34.9211 C   0  0  0  0  0  0  0  0  0  0  0  0
   25.0444    9.5867   34.3833 C   0  0  0  0  0  0  0  0  0  0  0  0
   28.1212    9.8258   38.2563 N   0  0  0  0  0  0  0  0  0  0  0  0
   27.0003    9.9765   39.1100 C   0  0  0  0  0  0  0  0  0  0  0  0
   26.6701   11.3607   39.5539 C   0  0  2  0  0  0  0  0  0  0  0  0
   27.4751   11.9034   40.5351 O   0  0  0  0  0  0  0  0  0  0  0  0
   25.2611   11.2953   40.1450 C   0  0  2  0  0  0  0  0  0  0  0  0
   25.1860   10.5469   41.2940 O   0  0  0  0  0  0  0  0  0  0  0  0
   24.2588   10.8562   39.1044 C   0  0  2  0  0  0  0  0  0  0  0  0
   24.3500   11.6383   37.9509 O   0  0  0  0  0  0  0  0  0  0  0  0
   22.8694   11.1087   39.6629 C   0  0  0  0  0  0  0  0  0  0  0  0
   22.4408   12.3820   39.2579 O   0  0  0  0  0  0  0  0  0  0  0  0
   21.2232   12.2797   38.1032 P   0  0  0  0  0  5  0  0  0  0  0  0
   19.9533   12.9459   38.5158 O   0  0  0  0  0  0  0  0  0  0  0  0
   21.7851   13.0032   36.6703 O   0  0  0  0  0  0  0  0  0  0  0  0
   20.8567   10.6447   37.7871 O   0  0  0  0  0  0  0  0  0  0  0  0
   29.4732    9.7895   38.7541 C   0  0  0  0  0  0  0  0  0  0  0  0
   29.6719    9.9393   40.0679 N   0  0  0  0  0  0  0  0  0  0  0  0
   30.9542    9.8979   40.5338 C   0  0  0  0  0  0  0  0  0  0  0  0
   31.0988   10.0437   41.7790 O   0  0  0  0  0  0  0  0  0  0  0  0
   32.0054    9.7136   39.7236 N   0  0  0  0  0  0  0  0  0  0  0  0
   31.8135    9.5622   38.4081 C   0  0  0  0  0  0  0  0  0  0  0  0
   32.7704    9.3841   37.5906 O   0  0  0  0  0  0  0  0  0  0  0  0
   30.5510    9.5939   37.8793 C   0  0  0  0  0  0  0  0  0  0  0  0
   30.3180    9.4278   36.4840 N   0  0  0  0  0  0  0  0  0  0  0  0
  1  2  1  0
  2  3  2  0
  3  4  1  0
  4  5  2  0
  5  6  1  0
  6  7  2  0
  7  8  1  0
  5  9  1  0
  9 10  1  0
 10 11  1  0
 11 12  1  1
 11 13  1  0
 13 14  1  1
 13 15  1  0
 15 16  1  6
 15 17  1  0
 17 18  1  0
 18 19  1  0
 19 20  2  0
 19 21  1  0
 19 22  1  0
  9 23  1  0
 23 24  1  0
 24 25  1  0
 25 26  2  0
 25 27  1  0
 27 28  1  0
 28 29  2  0
 28 30  1  0
 30 31  1  0
  7  2  1  0
 30 23  2  0
 31  4  1  0
M  END
$$$$
