
     RDKit          3D

 31 33  0  0  0  0  0  0  0  0999 V2000
   27.3579    9.2391   32.4756 C   0  0  0  0  0  0  0  0  0  0  0  0
   27.5824    9.3881   33.9336 C   0  0  0  0  0  0  0  0  0  0  0  0
   28.8549    9.3598   34.4597 C   0  0  0  0  0  0  0  0  0  0  0  0
   29.0497    9.4998   35.8233 C   0  0  0  0  0  0  0  0  0  0  0  0
   27.9651    9.6707   36.6826 C   0  0  0  0  0  0  0  0  0  0  0  0
   26.7197    9.6932   36.1131 C   0  0  0  0  0  0  0  0  0  0  0  0
   26.4801    9.5549   34.7382 C   0  0  0  0  0  0  0  0  0  0  0  0
   25.1090    9.5874   34.1860 C   0  0  0  0  0  0  0  0  0  0  0  0
   28.1403    9.8280   38.0946 N   0  0  0  0  0  0  0  0  0  0  0  0
   27.0082    9.9535   38.9376 C   0  0  0  0  0  0  0  0  0  0  0  0
   26.6467   11.3292   39.3834 C   0  0  2  0  0  0  0  0  0  0  0  0
   27.4520   11.8970   40.3501 O   0  0  0  0  0  0  0  0  0  0  0  0
   25.2498   11.2263   39.9975 C   0  0  2  0  0  0  0  0  0  0  0  0
   25.1914   10.3855   41.0817 O   0  0  0  0  0  0  0  0  0  0  0  0
   24.2216   10.8836   38.9461 C   0  0  2  0  0  0  0  0  0  0  0  0
   24.2215   11.8226   37.9122 O   0  0  0  0  0  0  0  0  0  0  0  0
   22.8496   10.9814   39.5897 C   0  0  0  0  0  0  0  0  0  0  0  0
   22.3211   12.2576   39.3426 O   0  0  0  0  0  0  0  0  0  0  0  0
   21.1825   12.2200   38.1062 P   0  0  0  0  0  5  0  0  0  0  0  0
   20.6099   13.5595   37.7827 O   0  0  0  0  0  0  0  0  0  0  0  0
   21.9278   11.5881   36.7142 O   0  0  0  0  0  0  0  0  0  0  0  0
   19.8826   11.2066   38.5427 O   0  0  0  0  0  0  0  0  0  0  0  0
   29.4872    9.8055   38.6067 C   0  0  0  0  0  0  0  0  0  0  0  0
   29.6696    9.9438   39.9241 N   0  0  0  0  0  0  0  0  0  0  0  0
   30.9473    9.9156   40.4035 C   0  0  0  0  0  0  0  0  0  0  0  0
   31.0764   10.0499   41.6517 O   0  0  0  0  0  0  0  0  0  0  0  0
   32.0097    9.7550   39.6029 N   0  0  0  0  0  0  0  0  0  0  0  0
   31.8341    9.6152   38.2838 C   0  0  0  0  0  0  0  0  0  0  0  0
   32.8022    9.4595   37.4749 O   0  0  0  0  0  0  0  0  0  0  0  0
   30.5771    9.6347   37.7417 C   0  0  0  0  0  0  0  0  0  0  0  0
   30.3614    9.4805   36.3422 N   0  0  0  0  0  0  0  0  0  0  0  0
  1  2  1  0
  2  3  2  0
  3  4  1  0
  4  5  2  0
  5  6  1  0
  6  7  2  0
  7  8  1  0
  5  9  1  0
  9 10  1  0
 10 11  1  0
 11 12  1  1
 11 13  1  0
 13 14  1  1
 13 15  1  0
 15 16  1  6
 15 17  1  0
 17 18  1  0
 18 19  1  0
 19 20  2  0
 19 21  1  0
 19 22  1  0
  9 23  1  0
 23 24  1  0
 24 25  1  0
 25 26  2  0
 25 27  1  0
 27 28  1  0
 28 29  2  0
 28 30  1  0
 30 31  1  0
  7  2  1  0
 30 23  2  0
 31  4  1  0
M  END
$$$$
