
     RDKit          3D

 31 33  0  0  0  0  0  0  0  0999 V2000
   27.0003    9.1700   32.6612 C   0  0  0  0  0  0  0  0  0  0  0  0
   27.2969    9.3236   34.1058 C   0  0  0  0  0  0  0  0  0  0  0  0
   28.5890    9.2396   34.5752 C   0  0  0  0  0  0  0  0  0  0  0  0
   28.8514    9.3846   35.9269 C   0  0  0  0  0  0  0  0  0  0  0  0
   27.8158    9.6166   36.8312 C   0  0  0  0  0  0  0  0  0  0  0  0
   26.5486    9.6930   36.3173 C   0  0  0  0  0  0  0  0  0  0  0  0
   26.2411    9.5517   34.9564 C   0  0  0  0  0  0  0  0  0  0  0  0
   24.8497    9.6443   34.4652 C   0  0  0  0  0  0  0  0  0  0  0  0
   28.0615    9.7803   38.2320 N   0  0  0  0  0  0  0  0  0  0  0  0
   26.9758    9.9690   39.1227 C   0  0  0  0  0  0  0  0  0  0  0  0
   26.6732   11.3701   39.5321 C   0  0  2  0  0  0  0  0  0  0  0  0
   27.4548   11.9024   40.5377 O   0  0  0  0  0  0  0  0  0  0  0  0
   25.2398   11.3594   40.0653 C   0  0  2  0  0  0  0  0  0  0  0  0
   25.1066   10.6921   41.2581 O   0  0  0  0  0  0  0  0  0  0  0  0
   24.2766   10.8606   39.0149 C   0  0  2  0  0  0  0  0  0  0  0  0
   24.7534   11.1168   37.7273 O   0  0  0  0  0  0  0  0  0  0  0  0
   22.9931   11.6619   39.1443 C   0  0  0  0  0  0  0  0  0  0  0  0
   22.3908   11.7635   37.8810 O   0  0  0  0  0  0  0  0  0  0  0  0
   20.8547   12.4386   37.9875 P   0  0  0  0  0  5  0  0  0  0  0  0
   19.9920   11.7960   39.0218 O   0  0  0  0  0  0  0  0  0  0  0  0
   21.0227   14.0899   38.3580 O   0  0  0  0  0  0  0  0  0  0  0  0
   20.0483   12.2892   36.4927 O   0  0  0  0  0  0  0  0  0  0  0  0
   29.4275    9.6984   38.6840 C   0  0  0  0  0  0  0  0  0  0  0  0
   29.6754    9.8418   39.9902 N   0  0  0  0  0  0  0  0  0  0  0  0
   30.9705    9.7572   40.4127 C   0  0  0  0  0  0  0  0  0  0  0  0
   31.1618    9.8984   41.6521 O   0  0  0  0  0  0  0  0  0  0  0  0
   31.9870    9.5372   39.5679 N   0  0  0  0  0  0  0  0  0  0  0  0
   31.7458    9.3919   38.2597 C   0  0  0  0  0  0  0  0  0  0  0  0
   32.6681    9.1813   37.4108 O   0  0  0  0  0  0  0  0  0  0  0  0
   30.4681    9.4662   37.7737 C   0  0  0  0  0  0  0  0  0  0  0  0
   30.1826    9.3076   36.3873 N   0  0  0  0  0  0  0  0  0  0  0  0
  1  2  1  0
  2  3  2  0
  3  4  1  0
  4  5  2  0
  5  6  1  0
  6  7  2  0
  7  8  1  0
  5  9  1  0
  9 10  1  0
 10 11  1  0
 11 12  1  1
 11 13  1  0
 13 14  1  1
 13 15  1  0
 15 16  1  6
 15 17  1  0
 17 18  1  0
 18 19  1  0
 19 20  2  0
 19 21  1  0
 19 22  1  0
  9 23  1  0
 23 24  1  0
 24 25  1  0
 25 26  2  0
 25 27  1  0
 27 28  1  0
 28 29  2  0
 28 30  1  0
 30 31  1  0
  7  2  1  0
 30 23  2  0
 31  4  1  0
M  END
$$$$
