
     RDKit          3D

 31 33  0  0  0  0  0  0  0  0999 V2000
   27.4596    9.2274   32.6152 C   0  0  0  0  0  0  0  0  0  0  0  0
   27.6734    9.3413   34.0780 C   0  0  0  0  0  0  0  0  0  0  0  0
   28.9449    9.3889   34.6053 C   0  0  0  0  0  0  0  0  0  0  0  0
   29.1297    9.4950   35.9733 C   0  0  0  0  0  0  0  0  0  0  0  0
   28.0360    9.5545   36.8360 C   0  0  0  0  0  0  0  0  0  0  0  0
   26.7920    9.5046   36.2652 C   0  0  0  0  0  0  0  0  0  0  0  0
   26.5623    9.3973   34.8859 C   0  0  0  0  0  0  0  0  0  0  0  0
   25.1922    9.3474   34.3325 C   0  0  0  0  0  0  0  0  0  0  0  0
   28.1999    9.6746   38.2530 N   0  0  0  0  0  0  0  0  0  0  0  0
   27.0623    9.6859   39.0977 C   0  0  0  0  0  0  0  0  0  0  0  0
   26.6972   10.9892   39.7222 C   0  0  2  0  0  0  0  0  0  0  0  0
   27.4008   11.3508   40.8535 O   0  0  0  0  0  0  0  0  0  0  0  0
   25.2346   10.8630   40.1509 C   0  0  2  0  0  0  0  0  0  0  0  0
   25.0428    9.9748   41.1805 O   0  0  0  0  0  0  0  0  0  0  0  0
   24.3475   10.5706   38.9645 C   0  0  2  0  0  0  0  0  0  0  0  0
   24.9874   10.8848   37.7634 O   0  0  0  0  0  0  0  0  0  0  0  0
   23.1463   11.4963   39.0440 C   0  0  0  0  0  0  0  0  0  0  0  0
   22.3299   11.2798   37.9234 O   0  0  0  0  0  0  0  0  0  0  0  0
   21.1459   12.4658   37.7900 P   0  0  0  0  0  5  0  0  0  0  0  0
   21.4509   13.7023   38.5677 O   0  0  0  0  0  0  0  0  0  0  0  0
   20.9830   12.8740   36.1470 O   0  0  0  0  0  0  0  0  0  0  0  0
   19.6545   11.8660   38.3586 O   0  0  0  0  0  0  0  0  0  0  0  0
   29.5452    9.7340   38.7666 C   0  0  0  0  0  0  0  0  0  0  0  0
   29.7177    9.8390   40.0884 N   0  0  0  0  0  0  0  0  0  0  0  0
   30.9943    9.8888   40.5690 C   0  0  0  0  0  0  0  0  0  0  0  0
   31.1140    9.9883   41.8214 O   0  0  0  0  0  0  0  0  0  0  0  0
   32.0651    9.8358   39.7653 N   0  0  0  0  0  0  0  0  0  0  0  0
   31.8995    9.7299   38.4417 C   0  0  0  0  0  0  0  0  0  0  0  0
   32.8759    9.6751   37.6298 O   0  0  0  0  0  0  0  0  0  0  0  0
   30.6441    9.6752   37.8982 C   0  0  0  0  0  0  0  0  0  0  0  0
   30.4395    9.5547   36.4937 N   0  0  0  0  0  0  0  0  0  0  0  0
  1  2  1  0
  2  3  2  0
  3  4  1  0
  4  5  2  0
  5  6  1  0
  6  7  2  0
  7  8  1  0
  5  9  1  0
  9 10  1  0
 10 11  1  0
 11 12  1  1
 11 13  1  0
 13 14  1  1
 13 15  1  0
 15 16  1  6
 15 17  1  0
 17 18  1  0
 18 19  1  0
 19 20  2  0
 19 21  1  0
 19 22  1  0
  9 23  1  0
 23 24  1  0
 24 25  1  0
 25 26  2  0
 25 27  1  0
 27 28  1  0
 28 29  2  0
 28 30  1  0
 30 31  1  0
  7  2  1  0
 30 23  2  0
 31  4  1  0
M  END
$$$$
