
     RDKit          3D

 31 33  0  0  0  0  0  0  0  0999 V2000
   27.3674    9.1699   32.8025 C   0  0  0  0  0  0  0  0  0  0  0  0
   27.5864    9.3051   34.2627 C   0  0  0  0  0  0  0  0  0  0  0  0
   28.8589    9.3053   34.7899 C   0  0  0  0  0  0  0  0  0  0  0  0
   29.0486    9.4321   36.1555 C   0  0  0  0  0  0  0  0  0  0  0  0
   27.9589    9.5606   37.0157 C   0  0  0  0  0  0  0  0  0  0  0  0
   26.7138    9.5559   36.4451 C   0  0  0  0  0  0  0  0  0  0  0  0
   26.4792    9.4298   35.0682 C   0  0  0  0  0  0  0  0  0  0  0  0
   25.1082    9.4313   34.5148 C   0  0  0  0  0  0  0  0  0  0  0  0
   28.1284    9.7033   38.4300 N   0  0  0  0  0  0  0  0  0  0  0  0
   26.9926    9.7853   39.2733 C   0  0  0  0  0  0  0  0  0  0  0  0
   26.5877   11.1449   39.7313 C   0  0  2  0  0  0  0  0  0  0  0  0
   27.2542   11.6510   40.8290 O   0  0  0  0  0  0  0  0  0  0  0  0
   25.1166   11.0390   40.1361 C   0  0  2  0  0  0  0  0  0  0  0  0
   24.9077   10.2298   41.2257 O   0  0  0  0  0  0  0  0  0  0  0  0
   24.2585   10.6499   38.9561 C   0  0  2  0  0  0  0  0  0  0  0  0
   24.5323   11.4501   37.8445 O   0  0  0  0  0  0  0  0  0  0  0  0
   22.8120   10.9344   39.3205 C   0  0  0  0  0  0  0  0  0  0  0  0
   22.4896   12.2394   38.9180 O   0  0  0  0  0  0  0  0  0  0  0  0
   21.5692   12.2365   37.5111 P   0  0  0  0  0  5  0  0  0  0  0  0
   20.4297   13.1995   37.5427 O   0  0  0  0  0  0  0  0  0  0  0  0
   22.5876   12.6298   36.2070 O   0  0  0  0  0  0  0  0  0  0  0  0
   20.9128   10.6850   37.2482 O   0  0  0  0  0  0  0  0  0  0  0  0
   29.4750    9.7117   38.9433 C   0  0  0  0  0  0  0  0  0  0  0  0
   29.6524    9.8369   40.2627 N   0  0  0  0  0  0  0  0  0  0  0  0
   30.9300    9.8380   40.7432 C   0  0  0  0  0  0  0  0  0  0  0  0
   31.0543    9.9587   41.9933 O   0  0  0  0  0  0  0  0  0  0  0  0
   31.9971    9.7184   39.9417 N   0  0  0  0  0  0  0  0  0  0  0  0
   31.8266    9.5918   38.6206 C   0  0  0  0  0  0  0  0  0  0  0  0
   32.7993    9.4746   37.8108 O   0  0  0  0  0  0  0  0  0  0  0  0
   30.5700    9.5834   38.0773 C   0  0  0  0  0  0  0  0  0  0  0  0
   30.3598    9.4425   36.6756 N   0  0  0  0  0  0  0  0  0  0  0  0
  1  2  1  0
  2  3  2  0
  3  4  1  0
  4  5  2  0
  5  6  1  0
  6  7  2  0
  7  8  1  0
  5  9  1  0
  9 10  1  0
 10 11  1  0
 11 12  1  1
 11 13  1  0
 13 14  1  1
 13 15  1  0
 15 16  1  6
 15 17  1  0
 17 18  1  0
 18 19  1  0
 19 20  2  0
 19 21  1  0
 19 22  1  0
  9 23  1  0
 23 24  1  0
 24 25  1  0
 25 26  2  0
 25 27  1  0
 27 28  1  0
 28 29  2  0
 28 30  1  0
 30 31  1  0
  7  2  1  0
 30 23  2  0
 31  4  1  0
M  END
$$$$
