
     RDKit          3D

 31 33  0  0  0  0  0  0  0  0999 V2000
   26.9470    9.2504   32.7130 C   0  0  0  0  0  0  0  0  0  0  0  0
   27.2902    9.3905   34.1486 C   0  0  0  0  0  0  0  0  0  0  0  0
   28.5891    9.2446   34.5827 C   0  0  0  0  0  0  0  0  0  0  0  0
   28.8951    9.3779   35.9264 C   0  0  0  0  0  0  0  0  0  0  0  0
   27.8972    9.6603   36.8582 C   0  0  0  0  0  0  0  0  0  0  0  0
   26.6214    9.7974   36.3790 C   0  0  0  0  0  0  0  0  0  0  0  0
   26.2703    9.6701   35.0273 C   0  0  0  0  0  0  0  0  0  0  0  0
   24.8720    9.8293   34.5741 C   0  0  0  0  0  0  0  0  0  0  0  0
   28.1888    9.8130   38.2514 N   0  0  0  0  0  0  0  0  0  0  0  0
   27.1382   10.0546   39.1711 C   0  0  0  0  0  0  0  0  0  0  0  0
   26.8600   11.4767   39.5209 C   0  0  2  0  0  0  0  0  0  0  0  0
   27.7323   12.0772   40.4062 O   0  0  0  0  0  0  0  0  0  0  0  0
   25.4883   11.4900   40.1972 C   0  0  2  0  0  0  0  0  0  0  0  0
   25.4278   10.7059   41.3229 O   0  0  0  0  0  0  0  0  0  0  0  0
   24.3953   11.1636   39.2078 C   0  0  2  0  0  0  0  0  0  0  0  0
   24.7555   11.5402   37.9120 O   0  0  0  0  0  0  0  0  0  0  0  0
   23.1838   12.0093   39.5592 C   0  0  0  0  0  0  0  0  0  0  0  0
   22.0233   11.3316   39.1555 O   0  0  0  0  0  0  0  0  0  0  0  0
   21.3033   12.0833   37.8352 P   0  0  0  0  0  5  0  0  0  0  0  0
   22.2021   12.1930   36.6490 O   0  0  0  0  0  0  0  0  0  0  0  0
   19.9231   11.1898   37.4004 O   0  0  0  0  0  0  0  0  0  0  0  0
   20.8252   13.6651   38.2552 O   0  0  0  0  0  0  0  0  0  0  0  0
   29.5611    9.6656   38.6661 C   0  0  0  0  0  0  0  0  0  0  0  0
   29.8513    9.7979   39.9647 N   0  0  0  0  0  0  0  0  0  0  0  0
   31.1519    9.6511   40.3518 C   0  0  0  0  0  0  0  0  0  0  0  0
   31.3838    9.7839   41.5852 O   0  0  0  0  0  0  0  0  0  0  0  0
   32.1330    9.3816   39.4799 N   0  0  0  0  0  0  0  0  0  0  0  0
   31.8494    9.2472   38.1792 C   0  0  0  0  0  0  0  0  0  0  0  0
   32.7368    8.9917   37.3058 O   0  0  0  0  0  0  0  0  0  0  0  0
   30.5639    9.3827   37.7282 C   0  0  0  0  0  0  0  0  0  0  0  0
   30.2332    9.2371   36.3504 N   0  0  0  0  0  0  0  0  0  0  0  0
  1  2  1  0
  2  3  2  0
  3  4  1  0
  4  5  2  0
  5  6  1  0
  6  7  2  0
  7  8  1  0
  5  9  1  0
  9 10  1  0
 10 11  1  0
 11 12  1  1
 11 13  1  0
 13 14  1  1
 13 15  1  0
 15 16  1  6
 15 17  1  0
 17 18  1  0
 18 19  1  0
 19 20  2  0
 19 21  1  0
 19 22  1  0
  9 23  1  0
 23 24  1  0
 24 25  1  0
 25 26  2  0
 25 27  1  0
 27 28  1  0
 28 29  2  0
 28 30  1  0
 30 31  1  0
  7  2  1  0
 30 23  2  0
 31  4  1  0
M  END
$$$$
