
     RDKit          3D

 31 33  0  0  0  0  0  0  0  0999 V2000
   27.2701    9.2453   32.6025 C   0  0  0  0  0  0  0  0  0  0  0  0
   27.5285    9.3658   34.0575 C   0  0  0  0  0  0  0  0  0  0  0  0
   28.8111    9.3026   34.5555 C   0  0  0  0  0  0  0  0  0  0  0  0
   29.0377    9.4163   35.9166 C   0  0  0  0  0  0  0  0  0  0  0  0
   27.9754    9.5954   36.8017 C   0  0  0  0  0  0  0  0  0  0  0  0
   26.7190    9.6529   36.2597 C   0  0  0  0  0  0  0  0  0  0  0  0
   26.4473    9.5420   34.8883 C   0  0  0  0  0  0  0  0  0  0  0  0
   25.0658    9.6117   34.3663 C   0  0  0  0  0  0  0  0  0  0  0  0
   28.1838    9.7259   38.2119 N   0  0  0  0  0  0  0  0  0  0  0  0
   27.0728    9.8608   39.0811 C   0  0  0  0  0  0  0  0  0  0  0  0
   26.7283   11.2404   39.5285 C   0  0  2  0  0  0  0  0  0  0  0  0
   27.5137   11.7803   40.5271 O   0  0  0  0  0  0  0  0  0  0  0  0
   25.3097   11.1644   40.0948 C   0  0  2  0  0  0  0  0  0  0  0  0
   25.2031   10.3431   41.1902 O   0  0  0  0  0  0  0  0  0  0  0  0
   24.3147   10.8158   39.0137 C   0  0  2  0  0  0  0  0  0  0  0  0
   24.4028   11.7029   37.9385 O   0  0  0  0  0  0  0  0  0  0  0  0
   22.9213   11.0034   39.5877 C   0  0  0  0  0  0  0  0  0  0  0  0
   22.4900   12.3110   39.3171 O   0  0  0  0  0  0  0  0  0  0  0  0
   21.3908   12.3423   38.0454 P   0  0  0  0  0  5  0  0  0  0  0  0
   20.7255   13.6658   37.8655 O   0  0  0  0  0  0  0  0  0  0  0  0
   22.2190   11.9425   36.6148 O   0  0  0  0  0  0  0  0  0  0  0  0
   20.1617   11.1905   38.3100 O   0  0  0  0  0  0  0  0  0  0  0  0
   29.5405    9.6673   38.6944 C   0  0  0  0  0  0  0  0  0  0  0  0
   29.7538    9.7803   40.0097 N   0  0  0  0  0  0  0  0  0  0  0  0
   31.0404    9.7179   40.4608 C   0  0  0  0  0  0  0  0  0  0  0  0
   31.1988    9.8290   41.7080 O   0  0  0  0  0  0  0  0  0  0  0  0
   32.0820    9.5486   39.6351 N   0  0  0  0  0  0  0  0  0  0  0  0
   31.8756    9.4340   38.3180 C   0  0  0  0  0  0  0  0  0  0  0  0
   32.8228    9.2718   37.4860 O   0  0  0  0  0  0  0  0  0  0  0  0
   30.6080    9.4883   37.8035 C   0  0  0  0  0  0  0  0  0  0  0  0
   30.3594    9.3615   36.4067 N   0  0  0  0  0  0  0  0  0  0  0  0
  1  2  1  0
  2  3  2  0
  3  4  1  0
  4  5  2  0
  5  6  1  0
  6  7  2  0
  7  8  1  0
  5  9  1  0
  9 10  1  0
 10 11  1  0
 11 12  1  1
 11 13  1  0
 13 14  1  1
 13 15  1  0
 15 16  1  6
 15 17  1  0
 17 18  1  0
 18 19  1  0
 19 20  2  0
 19 21  1  0
 19 22  1  0
  9 23  1  0
 23 24  1  0
 24 25  1  0
 25 26  2  0
 25 27  1  0
 27 28  1  0
 28 29  2  0
 28 30  1  0
 30 31  1  0
  7  2  1  0
 30 23  2  0
 31  4  1  0
M  END
$$$$
