
     RDKit          3D

 31 33  0  0  0  0  0  0  0  0999 V2000
   27.5028    9.1770   32.7597 C   0  0  0  0  0  0  0  0  0  0  0  0
   27.6907    9.3373   34.2217 C   0  0  0  0  0  0  0  0  0  0  0  0
   28.9485    9.2984   34.7815 C   0  0  0  0  0  0  0  0  0  0  0  0
   29.1091    9.4492   36.1484 C   0  0  0  0  0  0  0  0  0  0  0  0
   28.0045    9.6416   36.9771 C   0  0  0  0  0  0  0  0  0  0  0  0
   26.7749    9.6738   36.3747 C   0  0  0  0  0  0  0  0  0  0  0  0
   26.5698    9.5252   34.9954 C   0  0  0  0  0  0  0  0  0  0  0  0
   25.2142    9.5691   34.4068 C   0  0  0  0  0  0  0  0  0  0  0  0
   28.1443    9.8103   38.3917 N   0  0  0  0  0  0  0  0  0  0  0  0
   26.9922    9.9577   39.2034 C   0  0  0  0  0  0  0  0  0  0  0  0
   26.6138   11.3455   39.5942 C   0  0  2  0  0  0  0  0  0  0  0  0
   27.3616   11.9308   40.5961 O   0  0  0  0  0  0  0  0  0  0  0  0
   25.1807   11.2653   40.1220 C   0  0  2  0  0  0  0  0  0  0  0  0
   25.0619   10.5142   41.2655 O   0  0  0  0  0  0  0  0  0  0  0  0
   24.2300   10.8183   39.0373 C   0  0  2  0  0  0  0  0  0  0  0  0
   24.2923   11.6649   37.9282 O   0  0  0  0  0  0  0  0  0  0  0  0
   22.8163   10.9507   39.5760 C   0  0  0  0  0  0  0  0  0  0  0  0
   22.3329   12.2332   39.2748 O   0  0  0  0  0  0  0  0  0  0  0  0
   21.2318   12.1899   38.0050 P   0  0  0  0  0  5  0  0  0  0  0  0
   20.5235   13.4850   37.7864 O   0  0  0  0  0  0  0  0  0  0  0  0
   22.0711   11.7739   36.5855 O   0  0  0  0  0  0  0  0  0  0  0  0
   20.0413   11.0072   38.3070 O   0  0  0  0  0  0  0  0  0  0  0  0
   29.4770    9.7763   38.9394 C   0  0  0  0  0  0  0  0  0  0  0  0
   29.6264    9.9250   40.2599 N   0  0  0  0  0  0  0  0  0  0  0  0
   30.8905    9.8857   40.7731 C   0  0  0  0  0  0  0  0  0  0  0  0
   30.9884   10.0304   42.0230 O   0  0  0  0  0  0  0  0  0  0  0  0
   31.9715    9.7045   40.0024 N   0  0  0  0  0  0  0  0  0  0  0  0
   31.8290    9.5542   38.6804 C   0  0  0  0  0  0  0  0  0  0  0  0
   32.8160    9.3790   37.8989 O   0  0  0  0  0  0  0  0  0  0  0  0
   30.5870    9.5838   38.1051 C   0  0  0  0  0  0  0  0  0  0  0  0
   30.4063    9.4188   36.7019 N   0  0  0  0  0  0  0  0  0  0  0  0
  1  2  1  0
  2  3  2  0
  3  4  1  0
  4  5  2  0
  5  6  1  0
  6  7  2  0
  7  8  1  0
  5  9  1  0
  9 10  1  0
 10 11  1  0
 11 12  1  1
 11 13  1  0
 13 14  1  1
 13 15  1  0
 15 16  1  6
 15 17  1  0
 17 18  1  0
 18 19  1  0
 19 20  2  0
 19 21  1  0
 19 22  1  0
  9 23  1  0
 23 24  1  0
 24 25  1  0
 25 26  2  0
 25 27  1  0
 27 28  1  0
 28 29  2  0
 28 30  1  0
 30 31  1  0
  7  2  1  0
 30 23  2  0
 31  4  1  0
M  END
$$$$
