
     RDKit          3D

 31 33  0  0  0  0  0  0  0  0999 V2000
   26.9815    9.0400   32.7218 C   0  0  0  0  0  0  0  0  0  0  0  0
   27.3194    9.2138   34.1550 C   0  0  0  0  0  0  0  0  0  0  0  0
   28.6314    9.2639   34.5712 C   0  0  0  0  0  0  0  0  0  0  0  0
   28.9323    9.4263   35.9128 C   0  0  0  0  0  0  0  0  0  0  0  0
   27.9161    9.5406   36.8606 C   0  0  0  0  0  0  0  0  0  0  0  0
   26.6278    9.4858   36.3988 C   0  0  0  0  0  0  0  0  0  0  0  0
   26.2812    9.3225   35.0498 C   0  0  0  0  0  0  0  0  0  0  0  0
   24.8688    9.2705   34.6159 C   0  0  0  0  0  0  0  0  0  0  0  0
   28.2005    9.7194   38.2521 N   0  0  0  0  0  0  0  0  0  0  0  0
   27.1384    9.7855   39.1878 C   0  0  0  0  0  0  0  0  0  0  0  0
   26.7476   11.1402   39.6720 C   0  0  2  0  0  0  0  0  0  0  0  0
   27.5423   11.6988   40.6527 O   0  0  0  0  0  0  0  0  0  0  0  0
   25.3547   10.9895   40.2851 C   0  0  2  0  0  0  0  0  0  0  0  0
   25.2593    9.9454   41.1721 O   0  0  0  0  0  0  0  0  0  0  0  0
   24.2951   10.9319   39.2108 C   0  0  2  0  0  0  0  0  0  0  0  0
   24.7386   11.5294   38.0289 O   0  0  0  0  0  0  0  0  0  0  0  0
   23.1163   11.7684   39.6766 C   0  0  0  0  0  0  0  0  0  0  0  0
   21.9505   11.2990   39.0525 O   0  0  0  0  0  0  0  0  0  0  0  0
   21.4337   12.3526   37.8486 P   0  0  0  0  0  5  0  0  0  0  0  0
   22.2306   13.6121   37.7768 O   0  0  0  0  0  0  0  0  0  0  0  0
   21.5391   11.5474   36.3543 O   0  0  0  0  0  0  0  0  0  0  0  0
   19.8101   12.7965   38.1212 O   0  0  0  0  0  0  0  0  0  0  0  0
   29.5849    9.7797   38.6480 C   0  0  0  0  0  0  0  0  0  0  0  0
   29.8697    9.9391   39.9447 N   0  0  0  0  0  0  0  0  0  0  0  0
   31.1828    9.9893   40.3139 C   0  0  0  0  0  0  0  0  0  0  0  0
   31.4089   10.1411   41.5462 O   0  0  0  0  0  0  0  0  0  0  0  0
   32.1812    9.8844   39.4265 N   0  0  0  0  0  0  0  0  0  0  0  0
   31.9032    9.7238   38.1275 C   0  0  0  0  0  0  0  0  0  0  0  0
   32.8069    9.6183   37.2399 O   0  0  0  0  0  0  0  0  0  0  0  0
   30.6058    9.6656   37.6941 C   0  0  0  0  0  0  0  0  0  0  0  0
   30.2820    9.4877   36.3185 N   0  0  0  0  0  0  0  0  0  0  0  0
  1  2  1  0
  2  3  2  0
  3  4  1  0
  4  5  2  0
  5  6  1  0
  6  7  2  0
  7  8  1  0
  5  9  1  0
  9 10  1  0
 10 11  1  0
 11 12  1  1
 11 13  1  0
 13 14  1  6
 13 15  1  0
 15 16  1  6
 15 17  1  0
 17 18  1  0
 18 19  1  0
 19 20  2  0
 19 21  1  0
 19 22  1  0
  9 23  1  0
 23 24  1  0
 24 25  1  0
 25 26  2  0
 25 27  1  0
 27 28  1  0
 28 29  2  0
 28 30  1  0
 30 31  1  0
  7  2  1  0
 30 23  2  0
 31  4  1  0
M  END
$$$$
