
     RDKit          3D

 31 33  0  0  0  0  0  0  0  0999 V2000
   27.0981    9.2080   32.6647 C   0  0  0  0  0  0  0  0  0  0  0  0
   27.3678    9.3566   34.1150 C   0  0  0  0  0  0  0  0  0  0  0  0
   28.6581    9.3708   34.5965 C   0  0  0  0  0  0  0  0  0  0  0  0
   28.8953    9.5100   35.9535 C   0  0  0  0  0  0  0  0  0  0  0  0
   27.8359    9.6370   36.8510 C   0  0  0  0  0  0  0  0  0  0  0  0
   26.5714    9.6182   36.3251 C   0  0  0  0  0  0  0  0  0  0  0  0
   26.2890    9.4792   34.9585 C   0  0  0  0  0  0  0  0  0  0  0  0
   24.8992    9.4658   34.4543 C   0  0  0  0  0  0  0  0  0  0  0  0
   28.0545    9.7924   38.2571 N   0  0  0  0  0  0  0  0  0  0  0  0
   26.9488    9.8725   39.1397 C   0  0  0  0  0  0  0  0  0  0  0  0
   26.5611   11.2308   39.6159 C   0  0  2  0  0  0  0  0  0  0  0  0
   27.3663   11.7999   40.5820 O   0  0  0  0  0  0  0  0  0  0  0  0
   25.1758   11.0833   40.2469 C   0  0  2  0  0  0  0  0  0  0  0  0
   25.1278   10.1388   41.2425 O   0  0  0  0  0  0  0  0  0  0  0  0
   24.1216   10.8600   39.1891 C   0  0  2  0  0  0  0  0  0  0  0  0
   24.5693   11.2730   37.9322 O   0  0  0  0  0  0  0  0  0  0  0  0
   22.9384   11.7536   39.5174 C   0  0  0  0  0  0  0  0  0  0  0  0
   21.7707   11.1695   39.0032 O   0  0  0  0  0  0  0  0  0  0  0  0
   21.1669   12.0493   37.7040 P   0  0  0  0  0  5  0  0  0  0  0  0
   22.1467   12.2167   36.5910 O   0  0  0  0  0  0  0  0  0  0  0  0
   19.7900   11.2465   37.1105 O   0  0  0  0  0  0  0  0  0  0  0  0
   20.7145   13.6107   38.2184 O   0  0  0  0  0  0  0  0  0  0  0  0
   29.4184    9.8152   38.7221 C   0  0  0  0  0  0  0  0  0  0  0  0
   29.6416    9.9524   40.0333 N   0  0  0  0  0  0  0  0  0  0  0  0
   30.9354    9.9672   40.4679 C   0  0  0  0  0  0  0  0  0  0  0  0
   31.1032   10.0989   41.7118 O   0  0  0  0  0  0  0  0  0  0  0  0
   31.9743    9.8492   39.6299 N   0  0  0  0  0  0  0  0  0  0  0  0
   31.7579    9.7108   38.3167 C   0  0  0  0  0  0  0  0  0  0  0  0
   32.7021    9.5945   37.4738 O   0  0  0  0  0  0  0  0  0  0  0  0
   30.4828    9.6884   37.8186 C   0  0  0  0  0  0  0  0  0  0  0  0
   30.2241    9.5346   36.4264 N   0  0  0  0  0  0  0  0  0  0  0  0
  1  2  1  0
  2  3  2  0
  3  4  1  0
  4  5  2  0
  5  6  1  0
  6  7  2  0
  7  8  1  0
  5  9  1  0
  9 10  1  0
 10 11  1  0
 11 12  1  1
 11 13  1  0
 13 14  1  1
 13 15  1  0
 15 16  1  6
 15 17  1  0
 17 18  1  0
 18 19  1  0
 19 20  2  0
 19 21  1  0
 19 22  1  0
  9 23  1  0
 23 24  1  0
 24 25  1  0
 25 26  2  0
 25 27  1  0
 27 28  1  0
 28 29  2  0
 28 30  1  0
 30 31  1  0
  7  2  1  0
 30 23  2  0
 31  4  1  0
M  END
$$$$
