
     RDKit          3D

 31 33  0  0  0  0  0  0  0  0999 V2000
   27.2453    9.5046   32.6659 C   0  0  0  0  0  0  0  0  0  0  0  0
   27.4931    9.6104   34.1239 C   0  0  0  0  0  0  0  0  0  0  0  0
   28.7555    9.4237   34.6421 C   0  0  0  0  0  0  0  0  0  0  0  0
   28.9723    9.5253   36.0058 C   0  0  0  0  0  0  0  0  0  0  0  0
   27.9202    9.8165   36.8731 C   0  0  0  0  0  0  0  0  0  0  0  0
   26.6839    9.9946   36.3114 C   0  0  0  0  0  0  0  0  0  0  0  0
   26.4227    9.9003   34.9367 C   0  0  0  0  0  0  0  0  0  0  0  0
   25.0629   10.1032   34.3931 C   0  0  0  0  0  0  0  0  0  0  0  0
   28.1198    9.9370   38.2855 N   0  0  0  0  0  0  0  0  0  0  0  0
   27.0151   10.1890   39.1365 C   0  0  0  0  0  0  0  0  0  0  0  0
   26.7112   11.6153   39.4449 C   0  0  2  0  0  0  0  0  0  0  0  0
   27.6051   12.2741   40.2650 O   0  0  0  0  0  0  0  0  0  0  0  0
   25.3723   11.6169   40.1840 C   0  0  2  0  0  0  0  0  0  0  0  0
   25.4008   10.9181   41.3657 O   0  0  0  0  0  0  0  0  0  0  0  0
   24.2534   11.1672   39.2752 C   0  0  2  0  0  0  0  0  0  0  0  0
   24.5153   11.5020   37.9447 O   0  0  0  0  0  0  0  0  0  0  0  0
   23.0055   11.9445   39.6560 C   0  0  0  0  0  0  0  0  0  0  0  0
   21.8787   11.1458   39.4082 O   0  0  0  0  0  0  0  0  0  0  0  0
   21.0253   11.6905   38.0660 P   0  0  0  0  0  5  0  0  0  0  0  0
   19.7575   10.9421   37.8222 O   0  0  0  0  0  0  0  0  0  0  0  0
   20.6588   13.3349   38.2987 O   0  0  0  0  0  0  0  0  0  0  0  0
   21.9829   11.5330   36.6641 O   0  0  0  0  0  0  0  0  0  0  0  0
   29.4567    9.7473   38.7893 C   0  0  0  0  0  0  0  0  0  0  0  0
   29.6608    9.8490   40.1069 N   0  0  0  0  0  0  0  0  0  0  0  0
   30.9280    9.6622   40.5783 C   0  0  0  0  0  0  0  0  0  0  0  0
   31.0784    9.7671   41.8269 O   0  0  0  0  0  0  0  0  0  0  0  0
   31.9595    9.3833   39.7698 N   0  0  0  0  0  0  0  0  0  0  0  0
   31.7621    9.2793   38.4504 C   0  0  0  0  0  0  0  0  0  0  0  0
   32.7005    9.0167   37.6343 O   0  0  0  0  0  0  0  0  0  0  0  0
   30.5139    9.4555   37.9161 C   0  0  0  0  0  0  0  0  0  0  0  0
   30.2745    9.3428   36.5165 N   0  0  0  0  0  0  0  0  0  0  0  0
  1  2  1  0
  2  3  2  0
  3  4  1  0
  4  5  2  0
  5  6  1  0
  6  7  2  0
  7  8  1  0
  5  9  1  0
  9 10  1  0
 10 11  1  0
 11 12  1  1
 11 13  1  0
 13 14  1  1
 13 15  1  0
 15 16  1  6
 15 17  1  0
 17 18  1  0
 18 19  1  0
 19 20  2  0
 19 21  1  0
 19 22  1  0
  9 23  1  0
 23 24  1  0
 24 25  1  0
 25 26  2  0
 25 27  1  0
 27 28  1  0
 28 29  2  0
 28 30  1  0
 30 31  1  0
  7  2  1  0
 30 23  2  0
 31  4  1  0
M  END
$$$$
