
     RDKit          3D

 31 33  0  0  0  0  0  0  0  0999 V2000
   27.2433    9.5290   32.8740 C   0  0  0  0  0  0  0  0  0  0  0  0
   27.4993    9.6349   34.3306 C   0  0  0  0  0  0  0  0  0  0  0  0
   28.7685    9.4701   34.8394 C   0  0  0  0  0  0  0  0  0  0  0  0
   28.9930    9.5715   36.2019 C   0  0  0  0  0  0  0  0  0  0  0  0
   27.9418    9.8405   37.0774 C   0  0  0  0  0  0  0  0  0  0  0  0
   26.6984    9.9973   36.5248 C   0  0  0  0  0  0  0  0  0  0  0  0
   26.4295    9.9023   35.1518 C   0  0  0  0  0  0  0  0  0  0  0  0
   25.0623   10.0816   34.6182 C   0  0  0  0  0  0  0  0  0  0  0  0
   28.1490    9.9603   38.4888 N   0  0  0  0  0  0  0  0  0  0  0  0
   27.0458   10.1891   39.3482 C   0  0  0  0  0  0  0  0  0  0  0  0
   26.6623   11.6088   39.5923 C   0  0  2  0  0  0  0  0  0  0  0  0
   27.3493   12.2717   40.5894 O   0  0  0  0  0  0  0  0  0  0  0  0
   25.1958   11.5869   40.0257 C   0  0  2  0  0  0  0  0  0  0  0  0
   25.0031   11.0398   41.2704 O   0  0  0  0  0  0  0  0  0  0  0  0
   24.3307   10.9394   38.9710 C   0  0  2  0  0  0  0  0  0  0  0  0
   24.4158   11.6227   37.7558 O   0  0  0  0  0  0  0  0  0  0  0  0
   22.8839   11.0687   39.4142 C   0  0  0  0  0  0  0  0  0  0  0  0
   22.3100   12.1787   38.7758 O   0  0  0  0  0  0  0  0  0  0  0  0
   21.4769   11.7239   37.3881 P   0  0  0  0  0  5  0  0  0  0  0  0
   20.9769   12.8798   36.5876 O   0  0  0  0  0  0  0  0  0  0  0  0
   22.5209   10.7934   36.4204 O   0  0  0  0  0  0  0  0  0  0  0  0
   20.1230   10.7755   37.8065 O   0  0  0  0  0  0  0  0  0  0  0  0
   29.4927    9.7940   38.9826 C   0  0  0  0  0  0  0  0  0  0  0  0
   29.7040    9.8954   40.2991 N   0  0  0  0  0  0  0  0  0  0  0  0
   30.9778    9.7308   40.7611 C   0  0  0  0  0  0  0  0  0  0  0  0
   31.1349    9.8347   42.0090 O   0  0  0  0  0  0  0  0  0  0  0  0
   32.0086    9.4736   39.9446 N   0  0  0  0  0  0  0  0  0  0  0  0
   31.8039    9.3699   38.6263 C   0  0  0  0  0  0  0  0  0  0  0  0
   32.7413    9.1273   37.8029 O   0  0  0  0  0  0  0  0  0  0  0  0
   30.5490    9.5246   38.1012 C   0  0  0  0  0  0  0  0  0  0  0  0
   30.3019    9.4118   36.7030 N   0  0  0  0  0  0  0  0  0  0  0  0
  1  2  1  0
  2  3  2  0
  3  4  1  0
  4  5  2  0
  5  6  1  0
  6  7  2  0
  7  8  1  0
  5  9  1  0
  9 10  1  0
 10 11  1  0
 11 12  1  1
 11 13  1  0
 13 14  1  1
 13 15  1  0
 15 16  1  6
 15 17  1  0
 17 18  1  0
 18 19  1  0
 19 20  2  0
 19 21  1  0
 19 22  1  0
  9 23  1  0
 23 24  1  0
 24 25  1  0
 25 26  2  0
 25 27  1  0
 27 28  1  0
 28 29  2  0
 28 30  1  0
 30 31  1  0
  7  2  1  0
 30 23  2  0
 31  4  1  0
M  END
$$$$
