
     RDKit          3D

 31 33  0  0  0  0  0  0  0  0999 V2000
   27.4511    9.1442   32.5901 C   0  0  0  0  0  0  0  0  0  0  0  0
   27.6513    9.3264   34.0479 C   0  0  0  0  0  0  0  0  0  0  0  0
   28.9168    9.3439   34.5911 C   0  0  0  0  0  0  0  0  0  0  0  0
   29.0890    9.5145   35.9543 C   0  0  0  0  0  0  0  0  0  0  0  0
   27.9883    9.6703   36.7958 C   0  0  0  0  0  0  0  0  0  0  0  0
   26.7507    9.6469   36.2097 C   0  0  0  0  0  0  0  0  0  0  0  0
   26.5338    9.4765   34.8347 C   0  0  0  0  0  0  0  0  0  0  0  0
   25.1701    9.4599   34.2640 C   0  0  0  0  0  0  0  0  0  0  0  0
   28.1396    9.8585   38.2068 N   0  0  0  0  0  0  0  0  0  0  0  0
   26.9931    9.9673   39.0324 C   0  0  0  0  0  0  0  0  0  0  0  0
   26.6024   11.3379   39.4693 C   0  0  2  0  0  0  0  0  0  0  0  0
   27.3887   11.9243   40.4405 O   0  0  0  0  0  0  0  0  0  0  0  0
   25.2024   11.2116   40.0717 C   0  0  2  0  0  0  0  0  0  0  0  0
   25.1433   10.3482   41.1379 O   0  0  0  0  0  0  0  0  0  0  0  0
   24.1838   10.8829   39.0066 C   0  0  2  0  0  0  0  0  0  0  0  0
   24.2466   11.7914   37.9476 O   0  0  0  0  0  0  0  0  0  0  0  0
   22.8034   11.0568   39.6153 C   0  0  0  0  0  0  0  0  0  0  0  0
   22.3125   12.3264   39.2744 O   0  0  0  0  0  0  0  0  0  0  0  0
   21.1935   12.2344   38.0230 P   0  0  0  0  0  5  0  0  0  0  0  0
   20.3536   13.4600   37.8836 O   0  0  0  0  0  0  0  0  0  0  0  0
   22.0387   11.9769   36.5699 O   0  0  0  0  0  0  0  0  0  0  0  0
   20.1350   10.9233   38.2839 O   0  0  0  0  0  0  0  0  0  0  0  0
   29.4796    9.8837   38.7369 C   0  0  0  0  0  0  0  0  0  0  0  0
   29.6400   10.0514   40.0538 N   0  0  0  0  0  0  0  0  0  0  0  0
   30.9113   10.0683   40.5504 C   0  0  0  0  0  0  0  0  0  0  0  0
   31.0195   10.2292   41.7974 O   0  0  0  0  0  0  0  0  0  0  0  0
   31.9886    9.9232   39.7670 N   0  0  0  0  0  0  0  0  0  0  0  0
   31.8351    9.7542   38.4485 C   0  0  0  0  0  0  0  0  0  0  0  0
   32.8181    9.6113   37.6555 O   0  0  0  0  0  0  0  0  0  0  0  0
   30.5855    9.7280   37.8897 C   0  0  0  0  0  0  0  0  0  0  0  0
   30.3934    9.5420   36.4906 N   0  0  0  0  0  0  0  0  0  0  0  0
  1  2  1  0
  2  3  2  0
  3  4  1  0
  4  5  2  0
  5  6  1  0
  6  7  2  0
  7  8  1  0
  5  9  1  0
  9 10  1  0
 10 11  1  0
 11 12  1  1
 11 13  1  0
 13 14  1  1
 13 15  1  0
 15 16  1  6
 15 17  1  0
 17 18  1  0
 18 19  1  0
 19 20  2  0
 19 21  1  0
 19 22  1  0
  9 23  1  0
 23 24  1  0
 24 25  1  0
 25 26  2  0
 25 27  1  0
 27 28  1  0
 28 29  2  0
 28 30  1  0
 30 31  1  0
  7  2  1  0
 30 23  2  0
 31  4  1  0
M  END
$$$$
