
     RDKit          3D

 31 33  0  0  0  0  0  0  0  0999 V2000
   27.3290    9.3635   32.6008 C   0  0  0  0  0  0  0  0  0  0  0  0
   27.5655    9.4998   34.0581 C   0  0  0  0  0  0  0  0  0  0  0  0
   28.8390    9.4272   34.5777 C   0  0  0  0  0  0  0  0  0  0  0  0
   29.0450    9.5559   35.9408 C   0  0  0  0  0  0  0  0  0  0  0  0
   27.9710    9.7597   36.8061 C   0  0  0  0  0  0  0  0  0  0  0  0
   26.7242    9.8256   36.2429 C   0  0  0  0  0  0  0  0  0  0  0  0
   26.4733    9.7002   34.8689 C   0  0  0  0  0  0  0  0  0  0  0  0
   25.1014    9.7802   34.3237 C   0  0  0  0  0  0  0  0  0  0  0  0
   28.1582    9.9060   38.2177 N   0  0  0  0  0  0  0  0  0  0  0  0
   27.0351   10.0660   39.0669 C   0  0  0  0  0  0  0  0  0  0  0  0
   26.6769   11.4591   39.4585 C   0  0  2  0  0  0  0  0  0  0  0  0
   27.4758   12.0575   40.4119 O   0  0  0  0  0  0  0  0  0  0  0  0
   25.2735   11.3860   40.0616 C   0  0  2  0  0  0  0  0  0  0  0  0
   25.2202   10.6729   41.2340 O   0  0  0  0  0  0  0  0  0  0  0  0
   24.2726   10.8959   39.0427 C   0  0  2  0  0  0  0  0  0  0  0  0
   24.1977   11.7612   37.9489 O   0  0  0  0  0  0  0  0  0  0  0  0
   22.8985   10.9303   39.6883 C   0  0  0  0  0  0  0  0  0  0  0  0
   22.3113   12.1808   39.4420 O   0  0  0  0  0  0  0  0  0  0  0  0
   21.2017   12.0986   38.1816 P   0  0  0  0  0  5  0  0  0  0  0  0
   21.8104   11.7072   36.8766 O   0  0  0  0  0  0  0  0  0  0  0  0
   20.0074   10.9610   38.5962 O   0  0  0  0  0  0  0  0  0  0  0  0
   20.4607   13.6179   37.9584 O   0  0  0  0  0  0  0  0  0  0  0  0
   29.5061    9.8369   38.7229 C   0  0  0  0  0  0  0  0  0  0  0  0
   29.6995    9.9644   40.0399 N   0  0  0  0  0  0  0  0  0  0  0  0
   30.9779    9.8920   40.5127 C   0  0  0  0  0  0  0  0  0  0  0  0
   31.1176   10.0174   41.7607 O   0  0  0  0  0  0  0  0  0  0  0  0
   32.0304    9.6990   39.7063 N   0  0  0  0  0  0  0  0  0  0  0  0
   31.8438    9.5698   38.3876 C   0  0  0  0  0  0  0  0  0  0  0  0
   32.8022    9.3850   37.5733 O   0  0  0  0  0  0  0  0  0  0  0  0
   30.5854    9.6330   37.8519 C   0  0  0  0  0  0  0  0  0  0  0  0
   30.3579    9.4911   36.4530 N   0  0  0  0  0  0  0  0  0  0  0  0
  1  2  1  0
  2  3  2  0
  3  4  1  0
  4  5  2  0
  5  6  1  0
  6  7  2  0
  7  8  1  0
  5  9  1  0
  9 10  1  0
 10 11  1  0
 11 12  1  1
 11 13  1  0
 13 14  1  1
 13 15  1  0
 15 16  1  6
 15 17  1  0
 17 18  1  0
 18 19  1  0
 19 20  2  0
 19 21  1  0
 19 22  1  0
  9 23  1  0
 23 24  1  0
 24 25  1  0
 25 26  2  0
 25 27  1  0
 27 28  1  0
 28 29  2  0
 28 30  1  0
 30 31  1  0
  7  2  1  0
 30 23  2  0
 31  4  1  0
M  END
$$$$
