
     RDKit          3D

 31 33  0  0  0  0  0  0  0  0999 V2000
   27.3542    9.5159   32.6688 C   0  0  0  0  0  0  0  0  0  0  0  0
   27.5984    9.6092   34.1283 C   0  0  0  0  0  0  0  0  0  0  0  0
   28.8706    9.4864   34.6417 C   0  0  0  0  0  0  0  0  0  0  0  0
   29.0840    9.5753   36.0068 C   0  0  0  0  0  0  0  0  0  0  0  0
   28.0186    9.7893   36.8804 C   0  0  0  0  0  0  0  0  0  0  0  0
   26.7729    9.9057   36.3233 C   0  0  0  0  0  0  0  0  0  0  0  0
   26.5148    9.8216   34.9474 C   0  0  0  0  0  0  0  0  0  0  0  0
   25.1444    9.9554   34.4089 C   0  0  0  0  0  0  0  0  0  0  0  0
   28.2138    9.8952   38.2946 N   0  0  0  0  0  0  0  0  0  0  0  0
   27.0982   10.0672   39.1512 C   0  0  0  0  0  0  0  0  0  0  0  0
   26.7297   11.4668   39.5082 C   0  0  2  0  0  0  0  0  0  0  0  0
   27.5743   12.1249   40.3795 O   0  0  0  0  0  0  0  0  0  0  0  0
   25.3723   11.3861   40.2081 C   0  0  2  0  0  0  0  0  0  0  0  0
   25.3674   10.5447   41.2934 O   0  0  0  0  0  0  0  0  0  0  0  0
   24.2750   11.0622   39.2226 C   0  0  2  0  0  0  0  0  0  0  0  0
   24.6311   11.4389   37.9256 O   0  0  0  0  0  0  0  0  0  0  0  0
   23.0663   11.9097   39.5790 C   0  0  0  0  0  0  0  0  0  0  0  0
   21.9015   11.2160   39.2167 O   0  0  0  0  0  0  0  0  0  0  0  0
   21.1558   11.9243   37.8867 P   0  0  0  0  0  5  0  0  0  0  0  0
   22.0028   11.9235   36.6582 O   0  0  0  0  0  0  0  0  0  0  0  0
   19.7184   11.0737   37.5659 O   0  0  0  0  0  0  0  0  0  0  0  0
   20.7687   13.5484   38.2329 O   0  0  0  0  0  0  0  0  0  0  0  0
   29.5604    9.7740   38.7935 C   0  0  0  0  0  0  0  0  0  0  0  0
   29.7610    9.8633   40.1125 N   0  0  0  0  0  0  0  0  0  0  0  0
   31.0379    9.7416   40.5791 C   0  0  0  0  0  0  0  0  0  0  0  0
   31.1845    9.8321   41.8294 O   0  0  0  0  0  0  0  0  0  0  0  0
   32.0821    9.5377   39.7646 N   0  0  0  0  0  0  0  0  0  0  0  0
   31.8883    9.4466   38.4438 C   0  0  0  0  0  0  0  0  0  0  0  0
   32.8387    9.2538   37.6221 O   0  0  0  0  0  0  0  0  0  0  0  0
   30.6310    9.5600   37.9140 C   0  0  0  0  0  0  0  0  0  0  0  0
   30.3956    9.4593   36.5128 N   0  0  0  0  0  0  0  0  0  0  0  0
  1  2  1  0
  2  3  2  0
  3  4  1  0
  4  5  2  0
  5  6  1  0
  6  7  2  0
  7  8  1  0
  5  9  1  0
  9 10  1  0
 10 11  1  0
 11 12  1  1
 11 13  1  0
 13 14  1  1
 13 15  1  0
 15 16  1  6
 15 17  1  0
 17 18  1  0
 18 19  1  0
 19 20  2  0
 19 21  1  0
 19 22  1  0
  9 23  1  0
 23 24  1  0
 24 25  1  0
 25 26  2  0
 25 27  1  0
 27 28  1  0
 28 29  2  0
 28 30  1  0
 30 31  1  0
  7  2  1  0
 30 23  2  0
 31  4  1  0
M  END
$$$$
