
     RDKit          3D

 31 33  0  0  0  0  0  0  0  0999 V2000
   27.1830    9.2270   32.5558 C   0  0  0  0  0  0  0  0  0  0  0  0
   27.4432    9.3967   34.0056 C   0  0  0  0  0  0  0  0  0  0  0  0
   28.7298    9.4050   34.4969 C   0  0  0  0  0  0  0  0  0  0  0  0
   28.9581    9.5640   35.8532 C   0  0  0  0  0  0  0  0  0  0  0  0
   27.8933    9.7172   36.7401 C   0  0  0  0  0  0  0  0  0  0  0  0
   26.6327    9.7033   36.2048 C   0  0  0  0  0  0  0  0  0  0  0  0
   26.3593    9.5448   34.8384 C   0  0  0  0  0  0  0  0  0  0  0  0
   24.9734    9.5379   34.3237 C   0  0  0  0  0  0  0  0  0  0  0  0
   28.1027    9.8935   38.1452 N   0  0  0  0  0  0  0  0  0  0  0  0
   26.9912    9.9999   39.0177 C   0  0  0  0  0  0  0  0  0  0  0  0
   26.6234   11.3686   39.4797 C   0  0  2  0  0  0  0  0  0  0  0  0
   27.4803   11.9674   40.3812 O   0  0  0  0  0  0  0  0  0  0  0  0
   25.2786   11.2312   40.1950 C   0  0  2  0  0  0  0  0  0  0  0  0
   25.2783   10.2703   41.1759 O   0  0  0  0  0  0  0  0  0  0  0  0
   24.1561   11.0426   39.2028 C   0  0  2  0  0  0  0  0  0  0  0  0
   24.5229   11.4895   37.9314 O   0  0  0  0  0  0  0  0  0  0  0  0
   23.0022   11.9311   39.6333 C   0  0  0  0  0  0  0  0  0  0  0  0
   21.7944   11.3161   39.2700 O   0  0  0  0  0  0  0  0  0  0  0  0
   21.0140   12.1715   38.0511 P   0  0  0  0  0  5  0  0  0  0  0  0
   19.7266   11.5527   37.6193 O   0  0  0  0  0  0  0  0  0  0  0  0
   20.7067   13.7455   38.6171 O   0  0  0  0  0  0  0  0  0  0  0  0
   22.0155   12.2675   36.6745 O   0  0  0  0  0  0  0  0  0  0  0  0
   29.4632    9.9093   38.6204 C   0  0  0  0  0  0  0  0  0  0  0  0
   29.6779   10.0658   39.9309 N   0  0  0  0  0  0  0  0  0  0  0  0
   30.9684   10.0738   40.3754 C   0  0  0  0  0  0  0  0  0  0  0  0
   31.1280   10.2242   41.6182 O   0  0  0  0  0  0  0  0  0  0  0  0
   32.0123    9.9310   39.5476 N   0  0  0  0  0  0  0  0  0  0  0  0
   31.8045    9.7732   38.2352 C   0  0  0  0  0  0  0  0  0  0  0  0
   32.7538    9.6329   37.4017 O   0  0  0  0  0  0  0  0  0  0  0  0
   30.5331    9.7562   37.7276 C   0  0  0  0  0  0  0  0  0  0  0  0
   30.2834    9.5822   36.3361 N   0  0  0  0  0  0  0  0  0  0  0  0
  1  2  1  0
  2  3  2  0
  3  4  1  0
  4  5  2  0
  5  6  1  0
  6  7  2  0
  7  8  1  0
  5  9  1  0
  9 10  1  0
 10 11  1  0
 11 12  1  1
 11 13  1  0
 13 14  1  1
 13 15  1  0
 15 16  1  6
 15 17  1  0
 17 18  1  0
 18 19  1  0
 19 20  2  0
 19 21  1  0
 19 22  1  0
  9 23  1  0
 23 24  1  0
 24 25  1  0
 25 26  2  0
 25 27  1  0
 27 28  1  0
 28 29  2  0
 28 30  1  0
 30 31  1  0
  7  2  1  0
 30 23  2  0
 31  4  1  0
M  END
$$$$
