
     RDKit          3D

 31 33  0  0  0  0  0  0  0  0999 V2000
   27.2793    9.2539   32.5900 C   0  0  0  0  0  0  0  0  0  0  0  0
   27.5187    9.3845   34.0475 C   0  0  0  0  0  0  0  0  0  0  0  0
   28.7924    9.3021   34.5651 C   0  0  0  0  0  0  0  0  0  0  0  0
   29.0012    9.4256   35.9282 C   0  0  0  0  0  0  0  0  0  0  0  0
   27.9296    9.6340   36.7956 C   0  0  0  0  0  0  0  0  0  0  0  0
   26.6826    9.7097   36.2343 C   0  0  0  0  0  0  0  0  0  0  0  0
   26.4290    9.5899   34.8603 C   0  0  0  0  0  0  0  0  0  0  0  0
   25.0568    9.6804   34.3172 C   0  0  0  0  0  0  0  0  0  0  0  0
   28.1197    9.7751   38.2074 N   0  0  0  0  0  0  0  0  0  0  0  0
   26.9989    9.9401   39.0585 C   0  0  0  0  0  0  0  0  0  0  0  0
   26.6760   11.3303   39.4889 C   0  0  2  0  0  0  0  0  0  0  0  0
   27.5269   11.9048   40.4114 O   0  0  0  0  0  0  0  0  0  0  0  0
   25.3028   11.2622   40.1587 C   0  0  2  0  0  0  0  0  0  0  0  0
   25.2483   10.3705   41.2016 O   0  0  0  0  0  0  0  0  0  0  0  0
   24.2155   11.0232   39.1384 C   0  0  2  0  0  0  0  0  0  0  0  0
   24.6659   11.2951   37.8446 O   0  0  0  0  0  0  0  0  0  0  0  0
   23.1025   12.0216   39.4039 C   0  0  0  0  0  0  0  0  0  0  0  0
   21.8661   11.3859   39.2137 O   0  0  0  0  0  0  0  0  0  0  0  0
   21.0444   12.0272   37.8946 P   0  0  0  0  0  5  0  0  0  0  0  0
   19.7578   11.3317   37.5986 O   0  0  0  0  0  0  0  0  0  0  0  0
   20.7245   13.6672   38.2118 O   0  0  0  0  0  0  0  0  0  0  0  0
   22.0126   11.9160   36.4955 O   0  0  0  0  0  0  0  0  0  0  0  0
   29.4679    9.6957   38.7105 C   0  0  0  0  0  0  0  0  0  0  0  0
   29.6639    9.8182   40.0276 N   0  0  0  0  0  0  0  0  0  0  0  0
   30.9424    9.7360   40.4984 C   0  0  0  0  0  0  0  0  0  0  0  0
   31.0847    9.8570   41.7466 O   0  0  0  0  0  0  0  0  0  0  0  0
   31.9925    9.5384   39.6899 N   0  0  0  0  0  0  0  0  0  0  0  0
   31.8033    9.4141   38.3711 C   0  0  0  0  0  0  0  0  0  0  0  0
   32.7593    9.2253   37.5550 O   0  0  0  0  0  0  0  0  0  0  0  0
   30.5446    9.4872   37.8374 C   0  0  0  0  0  0  0  0  0  0  0  0
   30.3142    9.3507   36.4384 N   0  0  0  0  0  0  0  0  0  0  0  0
  1  2  1  0
  2  3  2  0
  3  4  1  0
  4  5  2  0
  5  6  1  0
  6  7  2  0
  7  8  1  0
  5  9  1  0
  9 10  1  0
 10 11  1  0
 11 12  1  1
 11 13  1  0
 13 14  1  1
 13 15  1  0
 15 16  1  6
 15 17  1  0
 17 18  1  0
 18 19  1  0
 19 20  2  0
 19 21  1  0
 19 22  1  0
  9 23  1  0
 23 24  1  0
 24 25  1  0
 25 26  2  0
 25 27  1  0
 27 28  1  0
 28 29  2  0
 28 30  1  0
 30 31  1  0
  7  2  1  0
 30 23  2  0
 31  4  1  0
M  END
$$$$
