7QF4_RBF_holo_aligned_esmfold_protein
     RDKit          3D

 27 29  0  0  0  0  0  0  0  0999 V2000
    4.4777   -2.1825  -11.5848 C   0  0  0  0  0  0  0  0  0  0  0  0
    3.0643   -2.6891  -11.7420 C   0  0  0  0  0  0  0  0  0  0  0  0
    2.7536   -3.3761  -12.9138 C   0  0  0  0  0  0  0  0  0  0  0  0
    1.5977   -4.1270  -13.0209 C   0  0  0  0  0  0  0  0  0  0  0  0
    1.3716   -4.7422  -14.2406 N   0  0  0  0  0  0  0  0  0  0  0  0
    0.2135   -5.3820  -14.3460 C   0  0  0  0  0  0  0  0  0  0  0  0
   -0.2091   -6.0178  -15.5749 C   0  0  0  0  0  0  0  0  0  0  0  0
    0.4996   -6.1265  -16.5713 O   0  0  0  0  0  0  0  0  0  0  0  0
   -1.4739   -6.5010  -15.6825 N   0  0  0  0  0  0  0  0  0  0  0  0
   -2.2689   -6.6455  -14.5942 C   0  0  0  0  0  0  0  0  0  0  0  0
   -3.2712   -7.3292  -14.7165 O   0  0  0  0  0  0  0  0  0  0  0  0
   -1.9382   -6.1423  -13.3625 N   0  0  0  0  0  0  0  0  0  0  0  0
   -0.7736   -5.5372  -13.2417 C   0  0  0  0  0  0  0  0  0  0  0  0
   -0.4333   -5.0405  -11.9881 N   0  0  0  0  0  0  0  0  0  0  0  0
   -1.3484   -5.1931  -10.8373 C   0  0  0  0  0  0  0  0  0  0  0  0
   -2.3788   -4.0651  -10.7393 C   0  0  2  0  0  0  0  0  0  0  0  0
   -1.8008   -2.8145  -11.1273 O   0  0  0  0  0  0  0  0  0  0  0  0
   -2.8551   -3.8691   -9.2963 C   0  0  2  0  0  0  0  0  0  0  0  0
   -1.7974   -3.2849   -8.5029 O   0  0  0  0  0  0  0  0  0  0  0  0
   -3.4884   -5.1047   -8.6727 C   0  0  2  0  0  0  0  0  0  0  0  0
   -4.6284   -5.5371   -9.4474 O   0  0  0  0  0  0  0  0  0  0  0  0
   -3.9127   -4.7429   -7.2409 C   0  0  0  0  0  0  0  0  0  0  0  0
   -4.1121   -3.3492   -6.9134 O   0  0  0  0  0  0  0  0  0  0  0  0
    0.7209   -4.2357  -11.9156 C   0  0  0  0  0  0  0  0  0  0  0  0
    1.0034   -3.4762  -10.7807 C   0  0  0  0  0  0  0  0  0  0  0  0
    2.1198   -2.6695  -10.7007 C   0  0  0  0  0  0  0  0  0  0  0  0
    2.2452   -1.8613   -9.4489 C   0  0  0  0  0  0  0  0  0  0  0  0
  1  2  1  0
  2  3  2  0
  3  4  1  0
  4  5  1  0
  5  6  2  0
  6  7  1  0
  7  8  2  0
  7  9  1  0
  9 10  1  0
 10 11  2  0
 10 12  1  0
 12 13  2  0
 13 14  1  0
 14 15  1  0
 15 16  1  0
 16 17  1  1
 16 18  1  0
 18 19  1  1
 18 20  1  0
 20 21  1  6
 20 22  1  0
 22 23  1  0
 14 24  1  0
 24 25  1  0
 25 26  2  0
 26 27  1  0
 26  2  1  0
 24  4  2  0
 13  6  1  0
M  END
