
     RDKit          3D

 27 29  0  0  0  0  0  0  0  0999 V2000
    4.3623   -1.7531  -11.7586 C   0  0  0  0  0  0  0  0  0  0  0  0
    3.1490   -2.6125  -11.7050 C   0  0  0  0  0  0  0  0  0  0  0  0
    2.7428   -3.2064  -12.8722 C   0  0  0  0  0  0  0  0  0  0  0  0
    1.6051   -4.0206  -12.8543 C   0  0  0  0  0  0  0  0  0  0  0  0
    1.2579   -4.5718  -14.0163 N   0  0  0  0  0  0  0  0  0  0  0  0
    0.1790   -5.3634  -14.0708 C   0  0  0  0  0  0  0  0  0  0  0  0
   -0.2539   -5.9708  -15.2117 C   0  0  0  0  0  0  0  0  0  0  0  0
    0.3875   -5.7837  -16.2737 O   0  0  0  0  0  0  0  0  0  0  0  0
   -1.3479   -6.7391  -15.1343 N   0  0  0  0  0  0  0  0  0  0  0  0
   -2.0503   -6.9561  -14.0183 C   0  0  0  0  0  0  0  0  0  0  0  0
   -3.0858   -7.7130  -14.0595 O   0  0  0  0  0  0  0  0  0  0  0  0
   -1.6571   -6.3781  -12.8809 N   0  0  0  0  0  0  0  0  0  0  0  0
   -0.5750   -5.5900  -12.8483 C   0  0  0  0  0  0  0  0  0  0  0  0
   -0.2046   -5.0164  -11.6643 N   0  0  0  0  0  0  0  0  0  0  0  0
   -0.9773   -5.2681  -10.4854 C   0  0  0  0  0  0  0  0  0  0  0  0
   -2.1605   -4.3051  -10.3740 C   0  0  2  0  0  0  0  0  0  0  0  0
   -1.6687   -2.9827  -10.5328 O   0  0  0  0  0  0  0  0  0  0  0  0
   -2.8349   -4.3802   -9.0319 C   0  0  2  0  0  0  0  0  0  0  0  0
   -2.0033   -4.0337   -7.9638 O   0  0  0  0  0  0  0  0  0  0  0  0
   -3.4946   -5.6791   -8.7083 C   0  0  2  0  0  0  0  0  0  0  0  0
   -4.4516   -6.0087   -9.6323 O   0  0  0  0  0  0  0  0  0  0  0  0
   -4.0135   -5.7313   -7.2851 C   0  0  0  0  0  0  0  0  0  0  0  0
   -5.0653   -4.8182   -7.1658 O   0  0  0  0  0  0  0  0  0  0  0  0
    0.8840   -4.2360  -11.6795 C   0  0  0  0  0  0  0  0  0  0  0  0
    1.3066   -3.6315  -10.5168 C   0  0  0  0  0  0  0  0  0  0  0  0
    2.4348   -2.8302  -10.5583 C   0  0  0  0  0  0  0  0  0  0  0  0
    2.9033   -2.1696   -9.3067 C   0  0  0  0  0  0  0  0  0  0  0  0
  1  2  1  0
  2  3  2  0
  3  4  1  0
  4  5  1  0
  5  6  2  0
  6  7  1  0
  7  8  2  0
  7  9  1  0
  9 10  1  0
 10 11  2  0
 10 12  1  0
 12 13  2  0
 13 14  1  0
 14 15  1  0
 15 16  1  0
 16 17  1  1
 16 18  1  0
 18 19  1  1
 18 20  1  0
 20 21  1  6
 20 22  1  0
 22 23  1  0
 14 24  1  0
 24 25  1  0
 25 26  2  0
 26 27  1  0
 26  2  1  0
 24  4  2  0
 13  6  1  0
M  END
$$$$
