
     RDKit          3D

 27 29  0  0  0  0  0  0  0  0999 V2000
    4.1740   -1.7875  -11.5337 C   0  0  0  0  0  0  0  0  0  0  0  0
    2.9647   -2.6541  -11.5429 C   0  0  0  0  0  0  0  0  0  0  0  0
    2.6234   -3.2507  -12.7294 C   0  0  0  0  0  0  0  0  0  0  0  0
    1.4912   -4.0716  -12.7704 C   0  0  0  0  0  0  0  0  0  0  0  0
    1.2082   -4.6251  -13.9486 N   0  0  0  0  0  0  0  0  0  0  0  0
    0.1383   -5.4231  -14.0588 C   0  0  0  0  0  0  0  0  0  0  0  0
   -0.2309   -6.0333  -15.2204 C   0  0  0  0  0  0  0  0  0  0  0  0
    0.4638   -5.8427  -16.2476 O   0  0  0  0  0  0  0  0  0  0  0  0
   -1.3229   -6.8081  -15.1997 N   0  0  0  0  0  0  0  0  0  0  0  0
   -2.0812   -7.0291  -14.1216 C   0  0  0  0  0  0  0  0  0  0  0  0
   -3.1086   -7.7921  -14.2163 O   0  0  0  0  0  0  0  0  0  0  0  0
   -1.7512   -6.4486  -12.9655 N   0  0  0  0  0  0  0  0  0  0  0  0
   -0.6769   -5.6539  -12.8771 C   0  0  0  0  0  0  0  0  0  0  0  0
   -0.3721   -5.0779  -11.6757 N   0  0  0  0  0  0  0  0  0  0  0  0
   -1.2036   -5.3340  -10.5385 C   0  0  0  0  0  0  0  0  0  0  0  0
   -2.4150   -4.4004  -10.5077 C   0  0  2  0  0  0  0  0  0  0  0  0
   -1.9534   -3.0730  -10.7094 O   0  0  0  0  0  0  0  0  0  0  0  0
   -3.1311   -4.4358   -9.1858 C   0  0  2  0  0  0  0  0  0  0  0  0
   -2.3422   -4.0280   -8.1071 O   0  0  0  0  0  0  0  0  0  0  0  0
   -3.7740   -5.7347   -8.8300 C   0  0  2  0  0  0  0  0  0  0  0  0
   -4.6981   -6.1193   -9.7662 O   0  0  0  0  0  0  0  0  0  0  0  0
   -4.3316   -5.7430   -7.4205 C   0  0  0  0  0  0  0  0  0  0  0  0
   -5.4099   -4.8550   -7.3680 O   0  0  0  0  0  0  0  0  0  0  0  0
    0.7112   -4.2910  -11.6346 C   0  0  0  0  0  0  0  0  0  0  0  0
    1.0690   -3.6838  -10.4518 C   0  0  0  0  0  0  0  0  0  0  0  0
    2.1931   -2.8758  -10.4349 C   0  0  0  0  0  0  0  0  0  0  0  0
    2.5919   -2.2121   -9.1609 C   0  0  0  0  0  0  0  0  0  0  0  0
  1  2  1  0
  2  3  2  0
  3  4  1  0
  4  5  1  0
  5  6  2  0
  6  7  1  0
  7  8  2  0
  7  9  1  0
  9 10  1  0
 10 11  2  0
 10 12  1  0
 12 13  2  0
 13 14  1  0
 14 15  1  0
 15 16  1  0
 16 17  1  1
 16 18  1  0
 18 19  1  1
 18 20  1  0
 20 21  1  6
 20 22  1  0
 22 23  1  0
 14 24  1  0
 24 25  1  0
 25 26  2  0
 26 27  1  0
 26  2  1  0
 24  4  2  0
 13  6  1  0
M  END
$$$$
