
     RDKit          3D

 27 29  0  0  0  0  0  0  0  0999 V2000
    4.2350   -1.6747  -11.5664 C   0  0  0  0  0  0  0  0  0  0  0  0
    3.0136   -2.5241  -11.5474 C   0  0  0  0  0  0  0  0  0  0  0  0
    2.6292   -3.1052  -12.7283 C   0  0  0  0  0  0  0  0  0  0  0  0
    1.4846   -3.9097  -12.7429 C   0  0  0  0  0  0  0  0  0  0  0  0
    1.1593   -4.4486  -13.9169 N   0  0  0  0  0  0  0  0  0  0  0  0
    0.0753   -5.2304  -14.0023 C   0  0  0  0  0  0  0  0  0  0  0  0
   -0.3365   -5.8251  -15.1577 C   0  0  0  0  0  0  0  0  0  0  0  0
    0.3304   -5.6351  -16.2033 O   0  0  0  0  0  0  0  0  0  0  0  0
   -1.4385   -6.5845  -15.1114 N   0  0  0  0  0  0  0  0  0  0  0  0
   -2.1680   -6.8044  -14.0134 C   0  0  0  0  0  0  0  0  0  0  0  0
   -3.2086   -7.5519  -14.0843 O   0  0  0  0  0  0  0  0  0  0  0  0
   -1.7959   -6.2388  -12.8627 N   0  0  0  0  0  0  0  0  0  0  0  0
   -0.7082   -5.4602  -12.7992 C   0  0  0  0  0  0  0  0  0  0  0  0
   -0.3601   -4.8992  -11.6025 N   0  0  0  0  0  0  0  0  0  0  0  0
   -1.1615   -5.1537  -10.4435 C   0  0  0  0  0  0  0  0  0  0  0  0
   -2.4004   -4.2570  -10.4104 C   0  0  2  0  0  0  0  0  0  0  0  0
   -1.9899   -2.9279  -10.6946 O   0  0  0  0  0  0  0  0  0  0  0  0
   -3.0643   -4.2481   -9.0609 C   0  0  2  0  0  0  0  0  0  0  0  0
   -2.2916   -3.6581   -8.0574 O   0  0  0  0  0  0  0  0  0  0  0  0
   -3.5441   -5.5710   -8.5644 C   0  0  2  0  0  0  0  0  0  0  0  0
   -4.4177   -6.1584   -9.4420 O   0  0  0  0  0  0  0  0  0  0  0  0
   -4.0923   -5.5006   -7.1530 C   0  0  0  0  0  0  0  0  0  0  0  0
   -5.2844   -4.7710   -7.1792 O   0  0  0  0  0  0  0  0  0  0  0  0
    0.7351   -4.1281  -11.5866 C   0  0  0  0  0  0  0  0  0  0  0  0
    1.1362   -3.5365  -10.4098 C   0  0  0  0  0  0  0  0  0  0  0  0
    2.2717   -2.7447  -10.4191 C   0  0  0  0  0  0  0  0  0  0  0  0
    2.7171   -2.0981   -9.1518 C   0  0  0  0  0  0  0  0  0  0  0  0
  1  2  1  0
  2  3  2  0
  3  4  1  0
  4  5  1  0
  5  6  2  0
  6  7  1  0
  7  8  2  0
  7  9  1  0
  9 10  1  0
 10 11  2  0
 10 12  1  0
 12 13  2  0
 13 14  1  0
 14 15  1  0
 15 16  1  0
 16 17  1  1
 16 18  1  0
 18 19  1  1
 18 20  1  0
 20 21  1  6
 20 22  1  0
 22 23  1  0
 14 24  1  0
 24 25  1  0
 25 26  2  0
 26 27  1  0
 26  2  1  0
 24  4  2  0
 13  6  1  0
M  END
$$$$
