
     RDKit          3D

 27 29  0  0  0  0  0  0  0  0999 V2000
    4.2657   -1.8585  -11.5383 C   0  0  0  0  0  0  0  0  0  0  0  0
    3.0440   -2.7074  -11.5174 C   0  0  0  0  0  0  0  0  0  0  0  0
    2.6574   -3.2880  -12.6979 C   0  0  0  0  0  0  0  0  0  0  0  0
    1.5125   -4.0921  -12.7108 C   0  0  0  0  0  0  0  0  0  0  0  0
    1.1850   -4.6305  -13.8844 N   0  0  0  0  0  0  0  0  0  0  0  0
    0.1005   -5.4119  -13.9683 C   0  0  0  0  0  0  0  0  0  0  0  0
   -0.3135   -6.0060  -15.1232 C   0  0  0  0  0  0  0  0  0  0  0  0
    0.3517   -5.8160  -16.1698 O   0  0  0  0  0  0  0  0  0  0  0  0
   -1.4156   -6.7651  -15.0753 N   0  0  0  0  0  0  0  0  0  0  0  0
   -2.1433   -6.9851  -13.9761 C   0  0  0  0  0  0  0  0  0  0  0  0
   -3.1843   -7.7323  -14.0454 O   0  0  0  0  0  0  0  0  0  0  0  0
   -1.7690   -6.4201  -12.8258 N   0  0  0  0  0  0  0  0  0  0  0  0
   -0.6810   -5.6419  -12.7639 C   0  0  0  0  0  0  0  0  0  0  0  0
   -0.3306   -5.0814  -11.5676 N   0  0  0  0  0  0  0  0  0  0  0  0
   -1.1301   -5.3360  -10.4073 C   0  0  0  0  0  0  0  0  0  0  0  0
   -2.2903   -4.3451  -10.2971 C   0  0  2  0  0  0  0  0  0  0  0  0
   -1.7710   -3.0366  -10.4813 O   0  0  0  0  0  0  0  0  0  0  0  0
   -2.9507   -4.3853   -8.9466 C   0  0  2  0  0  0  0  0  0  0  0  0
   -2.1027   -4.0293   -7.8946 O   0  0  0  0  0  0  0  0  0  0  0  0
   -3.6236   -5.6688   -8.5905 C   0  0  2  0  0  0  0  0  0  0  0  0
   -4.5988   -6.0008   -9.4946 O   0  0  0  0  0  0  0  0  0  0  0  0
   -4.1222   -5.6887   -7.1593 C   0  0  0  0  0  0  0  0  0  0  0  0
   -5.1508   -4.7498   -7.0379 O   0  0  0  0  0  0  0  0  0  0  0  0
    0.7649   -4.3107  -11.5533 C   0  0  0  0  0  0  0  0  0  0  0  0
    1.1682   -3.7197  -10.3769 C   0  0  0  0  0  0  0  0  0  0  0  0
    2.3040   -2.9282  -10.3879 C   0  0  0  0  0  0  0  0  0  0  0  0
    2.7518   -2.2822   -9.1212 C   0  0  0  0  0  0  0  0  0  0  0  0
  1  2  1  0
  2  3  2  0
  3  4  1  0
  4  5  1  0
  5  6  2  0
  6  7  1  0
  7  8  2  0
  7  9  1  0
  9 10  1  0
 10 11  2  0
 10 12  1  0
 12 13  2  0
 13 14  1  0
 14 15  1  0
 15 16  1  0
 16 17  1  1
 16 18  1  0
 18 19  1  1
 18 20  1  0
 20 21  1  6
 20 22  1  0
 22 23  1  0
 14 24  1  0
 24 25  1  0
 25 26  2  0
 26 27  1  0
 26  2  1  0
 24  4  2  0
 13  6  1  0
M  END
$$$$
