
     RDKit          3D

 27 29  0  0  0  0  0  0  0  0999 V2000
    4.2761   -1.8924  -11.5521 C   0  0  0  0  0  0  0  0  0  0  0  0
    3.0576   -2.7458  -11.5322 C   0  0  0  0  0  0  0  0  0  0  0  0
    2.6709   -3.3235  -12.7141 C   0  0  0  0  0  0  0  0  0  0  0  0
    1.5289   -4.1316  -12.7279 C   0  0  0  0  0  0  0  0  0  0  0  0
    1.2012   -4.6669  -13.9028 N   0  0  0  0  0  0  0  0  0  0  0  0
    0.1194   -5.4520  -13.9876 C   0  0  0  0  0  0  0  0  0  0  0  0
   -0.2945   -6.0433  -15.1439 C   0  0  0  0  0  0  0  0  0  0  0  0
    0.3681   -5.8470  -16.1910 O   0  0  0  0  0  0  0  0  0  0  0  0
   -1.3938   -6.8066  -15.0968 N   0  0  0  0  0  0  0  0  0  0  0  0
   -2.1187   -7.0332  -13.9971 C   0  0  0  0  0  0  0  0  0  0  0  0
   -3.1571   -7.7839  -14.0673 O   0  0  0  0  0  0  0  0  0  0  0  0
   -1.7444   -6.4710  -12.8454 N   0  0  0  0  0  0  0  0  0  0  0  0
   -0.6591   -5.6891  -12.7826 C   0  0  0  0  0  0  0  0  0  0  0  0
   -0.3085   -5.1318  -11.5849 N   0  0  0  0  0  0  0  0  0  0  0  0
   -1.1050   -5.3935  -10.4242 C   0  0  0  0  0  0  0  0  0  0  0  0
   -2.3213   -4.4682  -10.3582 C   0  0  2  0  0  0  0  0  0  0  0  0
   -1.8722   -3.1357  -10.5542 O   0  0  0  0  0  0  0  0  0  0  0  0
   -3.0101   -4.5230   -9.0224 C   0  0  2  0  0  0  0  0  0  0  0  0
   -2.2120   -4.0922   -7.9595 O   0  0  0  0  0  0  0  0  0  0  0  0
   -3.6087   -5.8393   -8.6537 C   0  0  2  0  0  0  0  0  0  0  0  0
   -4.5010   -6.2757   -9.5981 O   0  0  0  0  0  0  0  0  0  0  0  0
   -4.1899   -5.8444   -7.2539 C   0  0  0  0  0  0  0  0  0  0  0  0
   -5.3008   -4.9961   -7.2349 O   0  0  0  0  0  0  0  0  0  0  0  0
    0.7842   -4.3572  -11.5698 C   0  0  0  0  0  0  0  0  0  0  0  0
    1.1875   -3.7690  -10.3920 C   0  0  0  0  0  0  0  0  0  0  0  0
    2.3204   -2.9734  -10.4021 C   0  0  0  0  0  0  0  0  0  0  0  0
    2.7682   -2.3304   -9.1339 C   0  0  0  0  0  0  0  0  0  0  0  0
  1  2  1  0
  2  3  2  0
  3  4  1  0
  4  5  1  0
  5  6  2  0
  6  7  1  0
  7  8  2  0
  7  9  1  0
  9 10  1  0
 10 11  2  0
 10 12  1  0
 12 13  2  0
 13 14  1  0
 14 15  1  0
 15 16  1  0
 16 17  1  1
 16 18  1  0
 18 19  1  1
 18 20  1  0
 20 21  1  6
 20 22  1  0
 22 23  1  0
 14 24  1  0
 24 25  1  0
 25 26  2  0
 26 27  1  0
 26  2  1  0
 24  4  2  0
 13  6  1  0
M  END
$$$$
