
     RDKit          3D

 27 29  0  0  0  0  0  0  0  0999 V2000
    4.3967   -1.7877  -11.5186 C   0  0  0  0  0  0  0  0  0  0  0  0
    3.1742   -2.6356  -11.5100 C   0  0  0  0  0  0  0  0  0  0  0  0
    2.8137   -3.2371  -12.6883 C   0  0  0  0  0  0  0  0  0  0  0  0
    1.6688   -4.0409  -12.7125 C   0  0  0  0  0  0  0  0  0  0  0  0
    1.3673   -4.6002  -13.8833 N   0  0  0  0  0  0  0  0  0  0  0  0
    0.2844   -5.3826  -13.9775 C   0  0  0  0  0  0  0  0  0  0  0  0
   -0.1040   -5.9971  -15.1306 C   0  0  0  0  0  0  0  0  0  0  0  0
    0.5847   -5.8261  -16.1652 O   0  0  0  0  0  0  0  0  0  0  0  0
   -1.2075   -6.7548  -15.0938 N   0  0  0  0  0  0  0  0  0  0  0  0
   -1.9599   -6.9547  -14.0075 C   0  0  0  0  0  0  0  0  0  0  0  0
   -2.9996   -7.7026  -14.0869 O   0  0  0  0  0  0  0  0  0  0  0  0
   -1.6112   -6.3693  -12.8595 N   0  0  0  0  0  0  0  0  0  0  0  0
   -0.5241   -5.5905  -12.7871 C   0  0  0  0  0  0  0  0  0  0  0  0
   -0.2003   -5.0088  -11.5934 N   0  0  0  0  0  0  0  0  0  0  0  0
   -1.0259   -5.2422  -10.4471 C   0  0  0  0  0  0  0  0  0  0  0  0
   -2.2546   -4.3310  -10.4458 C   0  0  2  0  0  0  0  0  0  0  0  0
   -1.8161   -2.9999  -10.6729 O   0  0  0  0  0  0  0  0  0  0  0  0
   -2.9805   -4.3511   -9.1288 C   0  0  2  0  0  0  0  0  0  0  0  0
   -2.2130   -3.8901   -8.0560 O   0  0  0  0  0  0  0  0  0  0  0  0
   -3.5874   -5.6582   -8.7416 C   0  0  2  0  0  0  0  0  0  0  0  0
   -4.4869   -6.0995   -9.6769 O   0  0  0  0  0  0  0  0  0  0  0  0
   -4.1629   -5.6418   -7.3395 C   0  0  0  0  0  0  0  0  0  0  0  0
   -5.2720   -4.7910   -7.3283 O   0  0  0  0  0  0  0  0  0  0  0  0
    0.8952   -4.2384  -11.5683 C   0  0  0  0  0  0  0  0  0  0  0  0
    1.2724   -3.6265  -10.3940 C   0  0  0  0  0  0  0  0  0  0  0  0
    2.4088   -2.8358  -10.3936 C   0  0  0  0  0  0  0  0  0  0  0  0
    2.8285   -2.1673   -9.1290 C   0  0  0  0  0  0  0  0  0  0  0  0
  1  2  1  0
  2  3  2  0
  3  4  1  0
  4  5  1  0
  5  6  2  0
  6  7  1  0
  7  8  2  0
  7  9  1  0
  9 10  1  0
 10 11  2  0
 10 12  1  0
 12 13  2  0
 13 14  1  0
 14 15  1  0
 15 16  1  0
 16 17  1  1
 16 18  1  0
 18 19  1  1
 18 20  1  0
 20 21  1  6
 20 22  1  0
 22 23  1  0
 14 24  1  0
 24 25  1  0
 25 26  2  0
 26 27  1  0
 26  2  1  0
 24  4  2  0
 13  6  1  0
M  END
$$$$
