
     RDKit          3D

 27 29  0  0  0  0  0  0  0  0999 V2000
    4.1257   -1.7199  -11.3778 C   0  0  0  0  0  0  0  0  0  0  0  0
    2.9379   -2.6157  -11.3882 C   0  0  0  0  0  0  0  0  0  0  0  0
    2.5964   -3.1990  -12.5812 C   0  0  0  0  0  0  0  0  0  0  0  0
    1.4841   -4.0467  -12.6236 C   0  0  0  0  0  0  0  0  0  0  0  0
    1.2000   -4.5856  -13.8082 N   0  0  0  0  0  0  0  0  0  0  0  0
    0.1485   -5.4076  -13.9201 C   0  0  0  0  0  0  0  0  0  0  0  0
   -0.2202   -6.0057  -15.0882 C   0  0  0  0  0  0  0  0  0  0  0  0
    0.4566   -5.7794  -16.1201 O   0  0  0  0  0  0  0  0  0  0  0  0
   -1.2926   -6.8074  -15.0685 N   0  0  0  0  0  0  0  0  0  0  0  0
   -2.0317   -7.0664  -13.9855 C   0  0  0  0  0  0  0  0  0  0  0  0
   -3.0413   -7.8527  -14.0817 O   0  0  0  0  0  0  0  0  0  0  0  0
   -1.7014   -6.4989  -12.8231 N   0  0  0  0  0  0  0  0  0  0  0  0
   -0.6459   -5.6798  -12.7331 C   0  0  0  0  0  0  0  0  0  0  0  0
   -0.3401   -5.1182  -11.5251 N   0  0  0  0  0  0  0  0  0  0  0  0
   -1.1508   -5.4152  -10.3828 C   0  0  0  0  0  0  0  0  0  0  0  0
   -2.2998   -4.4163  -10.2353 C   0  0  2  0  0  0  0  0  0  0  0  0
   -1.7696   -3.1086  -10.3923 O   0  0  0  0  0  0  0  0  0  0  0  0
   -2.9463   -4.4840   -8.8792 C   0  0  2  0  0  0  0  0  0  0  0  0
   -2.0702   -4.2169   -7.8240 O   0  0  0  0  0  0  0  0  0  0  0  0
   -3.6779   -5.7475   -8.5707 C   0  0  2  0  0  0  0  0  0  0  0  0
   -4.6983   -5.9750   -9.4571 O   0  0  0  0  0  0  0  0  0  0  0  0
   -4.1311   -5.8216   -7.1262 C   0  0  0  0  0  0  0  0  0  0  0  0
   -5.0899   -4.8268   -6.9136 O   0  0  0  0  0  0  0  0  0  0  0  0
    0.7241   -4.3058  -11.4826 C   0  0  0  0  0  0  0  0  0  0  0  0
    1.0818   -3.7114  -10.2933 C   0  0  0  0  0  0  0  0  0  0  0  0
    2.1859   -2.8764  -10.2752 C   0  0  0  0  0  0  0  0  0  0  0  0
    2.5844   -2.2262   -8.9942 C   0  0  0  0  0  0  0  0  0  0  0  0
  1  2  1  0
  2  3  2  0
  3  4  1  0
  4  5  1  0
  5  6  2  0
  6  7  1  0
  7  8  2  0
  7  9  1  0
  9 10  1  0
 10 11  2  0
 10 12  1  0
 12 13  2  0
 13 14  1  0
 14 15  1  0
 15 16  1  0
 16 17  1  1
 16 18  1  0
 18 19  1  1
 18 20  1  0
 20 21  1  6
 20 22  1  0
 22 23  1  0
 14 24  1  0
 24 25  1  0
 25 26  2  0
 26 27  1  0
 26  2  1  0
 24  4  2  0
 13  6  1  0
M  END
$$$$
