
     RDKit          3D

 27 29  0  0  0  0  0  0  0  0999 V2000
    4.4442   -1.7658  -11.6893 C   0  0  0  0  0  0  0  0  0  0  0  0
    3.2142   -2.6012  -11.6353 C   0  0  0  0  0  0  0  0  0  0  0  0
    2.8207   -3.2224  -12.7926 C   0  0  0  0  0  0  0  0  0  0  0  0
    1.6678   -4.0151  -12.7741 C   0  0  0  0  0  0  0  0  0  0  0  0
    1.3338   -4.5945  -13.9262 N   0  0  0  0  0  0  0  0  0  0  0  0
    0.2416   -5.3677  -13.9795 C   0  0  0  0  0  0  0  0  0  0  0  0
   -0.1794   -6.0012  -15.1106 C   0  0  0  0  0  0  0  0  0  0  0  0
    0.4865   -5.8577  -16.1642 O   0  0  0  0  0  0  0  0  0  0  0  0
   -1.2889   -6.7470  -15.0331 N   0  0  0  0  0  0  0  0  0  0  0  0
   -2.0176   -6.9178  -13.9259 C   0  0  0  0  0  0  0  0  0  0  0  0
   -3.0660   -7.6567  -13.9660 O   0  0  0  0  0  0  0  0  0  0  0  0
   -1.6366   -6.3131  -12.7982 N   0  0  0  0  0  0  0  0  0  0  0  0
   -0.5408   -5.5440  -12.7667 C   0  0  0  0  0  0  0  0  0  0  0  0
   -0.1837   -4.9419  -11.5928 N   0  0  0  0  0  0  0  0  0  0  0  0
   -0.9845   -5.1442  -10.4232 C   0  0  0  0  0  0  0  0  0  0  0  0
   -2.1533   -4.1591  -10.3662 C   0  0  2  0  0  0  0  0  0  0  0  0
   -1.6281   -2.8452  -10.4836 O   0  0  0  0  0  0  0  0  0  0  0  0
   -2.9017   -4.2340   -9.0640 C   0  0  2  0  0  0  0  0  0  0  0  0
   -2.1179   -3.9359   -7.9463 O   0  0  0  0  0  0  0  0  0  0  0  0
   -3.6222   -5.5142   -8.8015 C   0  0  2  0  0  0  0  0  0  0  0  0
   -4.5368   -5.7947   -9.7830 O   0  0  0  0  0  0  0  0  0  0  0  0
   -4.2213   -5.5720   -7.4104 C   0  0  0  0  0  0  0  0  0  0  0  0
   -5.2700   -4.6502   -7.3437 O   0  0  0  0  0  0  0  0  0  0  0  0
    0.9194   -4.1821  -11.6086 C   0  0  0  0  0  0  0  0  0  0  0  0
    1.3297   -3.5507  -10.4558 C   0  0  0  0  0  0  0  0  0  0  0  0
    2.4733   -2.7715  -10.4977 C   0  0  0  0  0  0  0  0  0  0  0  0
    2.9288   -2.0823   -9.2568 C   0  0  0  0  0  0  0  0  0  0  0  0
  1  2  1  0
  2  3  2  0
  3  4  1  0
  4  5  1  0
  5  6  2  0
  6  7  1  0
  7  8  2  0
  7  9  1  0
  9 10  1  0
 10 11  2  0
 10 12  1  0
 12 13  2  0
 13 14  1  0
 14 15  1  0
 15 16  1  0
 16 17  1  1
 16 18  1  0
 18 19  1  1
 18 20  1  0
 20 21  1  6
 20 22  1  0
 22 23  1  0
 14 24  1  0
 24 25  1  0
 25 26  2  0
 26 27  1  0
 26  2  1  0
 24  4  2  0
 13  6  1  0
M  END
$$$$
