
     RDKit          3D

 27 29  0  0  0  0  0  0  0  0999 V2000
    4.2928   -1.7570  -11.5288 C   0  0  0  0  0  0  0  0  0  0  0  0
    3.0748   -2.6113  -11.5165 C   0  0  0  0  0  0  0  0  0  0  0  0
    2.7153   -3.2167  -12.6930 C   0  0  0  0  0  0  0  0  0  0  0  0
    1.5745   -4.0265  -12.7137 C   0  0  0  0  0  0  0  0  0  0  0  0
    1.2738   -4.5893  -13.8830 N   0  0  0  0  0  0  0  0  0  0  0  0
    0.1948   -5.3775  -13.9738 C   0  0  0  0  0  0  0  0  0  0  0  0
   -0.1926   -5.9961  -15.1251 C   0  0  0  0  0  0  0  0  0  0  0  0
    0.4932   -5.8232  -16.1613 O   0  0  0  0  0  0  0  0  0  0  0  0
   -1.2920   -6.7595  -15.0850 N   0  0  0  0  0  0  0  0  0  0  0  0
   -2.0413   -6.9615  -13.9969 C   0  0  0  0  0  0  0  0  0  0  0  0
   -3.0772   -7.7150  -14.0730 O   0  0  0  0  0  0  0  0  0  0  0  0
   -1.6934   -6.3724  -12.8505 N   0  0  0  0  0  0  0  0  0  0  0  0
   -0.6104   -5.5878  -12.7815 C   0  0  0  0  0  0  0  0  0  0  0  0
   -0.2873   -5.0024  -11.5894 N   0  0  0  0  0  0  0  0  0  0  0  0
   -1.1095   -5.2382  -10.4411 C   0  0  0  0  0  0  0  0  0  0  0  0
   -2.2327   -4.2053  -10.3338 C   0  0  2  0  0  0  0  0  0  0  0  0
   -1.6551   -2.9131  -10.4453 O   0  0  0  0  0  0  0  0  0  0  0  0
   -2.9458   -4.2709   -9.0113 C   0  0  2  0  0  0  0  0  0  0  0  0
   -2.1152   -4.0396   -7.9118 O   0  0  0  0  0  0  0  0  0  0  0  0
   -3.7247   -5.5176   -8.7545 C   0  0  2  0  0  0  0  0  0  0  0  0
   -4.7050   -5.7085   -9.6932 O   0  0  0  0  0  0  0  0  0  0  0  0
   -4.2514   -5.5946   -7.3353 C   0  0  0  0  0  0  0  0  0  0  0  0
   -5.2892   -4.6679   -7.1996 O   0  0  0  0  0  0  0  0  0  0  0  0
    0.8042   -4.2261  -11.5677 C   0  0  0  0  0  0  0  0  0  0  0  0
    1.1804   -3.6103  -10.3951 C   0  0  0  0  0  0  0  0  0  0  0  0
    2.3126   -2.8136  -10.3983 C   0  0  0  0  0  0  0  0  0  0  0  0
    2.7313   -2.1408   -9.1356 C   0  0  0  0  0  0  0  0  0  0  0  0
  1  2  1  0
  2  3  2  0
  3  4  1  0
  4  5  1  0
  5  6  2  0
  6  7  1  0
  7  8  2  0
  7  9  1  0
  9 10  1  0
 10 11  2  0
 10 12  1  0
 12 13  2  0
 13 14  1  0
 14 15  1  0
 15 16  1  0
 16 17  1  1
 16 18  1  0
 18 19  1  1
 18 20  1  0
 20 21  1  6
 20 22  1  0
 22 23  1  0
 14 24  1  0
 24 25  1  0
 25 26  2  0
 26 27  1  0
 26  2  1  0
 24  4  2  0
 13  6  1  0
M  END
$$$$
