
     RDKit          3D

 27 29  0  0  0  0  0  0  0  0999 V2000
    4.4219   -1.9136  -11.7630 C   0  0  0  0  0  0  0  0  0  0  0  0
    3.1811   -2.7337  -11.7293 C   0  0  0  0  0  0  0  0  0  0  0  0
    2.7806   -3.3229  -12.9008 C   0  0  0  0  0  0  0  0  0  0  0  0
    1.6175   -4.1005  -12.9015 C   0  0  0  0  0  0  0  0  0  0  0  0
    1.2771   -4.6488  -14.0668 N   0  0  0  0  0  0  0  0  0  0  0  0
    0.1749   -5.4063  -14.1387 C   0  0  0  0  0  0  0  0  0  0  0  0
   -0.2532   -6.0079  -15.2845 C   0  0  0  0  0  0  0  0  0  0  0  0
    0.4156   -5.8490  -16.3340 O   0  0  0  0  0  0  0  0  0  0  0  0
   -1.3726   -6.7406  -15.2250 N   0  0  0  0  0  0  0  0  0  0  0  0
   -2.1046   -6.9272  -14.1226 C   0  0  0  0  0  0  0  0  0  0  0  0
   -3.1625   -7.6512  -14.1805 O   0  0  0  0  0  0  0  0  0  0  0  0
   -1.7169   -6.3538  -12.9810 N   0  0  0  0  0  0  0  0  0  0  0  0
   -0.6111   -5.6000  -12.9309 C   0  0  0  0  0  0  0  0  0  0  0  0
   -0.2474   -5.0298  -11.7432 N   0  0  0  0  0  0  0  0  0  0  0  0
   -1.0520   -5.2484  -10.5792 C   0  0  0  0  0  0  0  0  0  0  0  0
   -2.2069   -4.2485  -10.4997 C   0  0  2  0  0  0  0  0  0  0  0  0
   -1.6682   -2.9418  -10.6333 O   0  0  0  0  0  0  0  0  0  0  0  0
   -2.9269   -4.3098   -9.1808 C   0  0  2  0  0  0  0  0  0  0  0  0
   -2.1193   -3.9995   -8.0836 O   0  0  0  0  0  0  0  0  0  0  0  0
   -3.6407   -5.5874   -8.8892 C   0  0  2  0  0  0  0  0  0  0  0  0
   -4.5789   -5.8768   -9.8455 O   0  0  0  0  0  0  0  0  0  0  0  0
   -4.2060   -5.6322   -7.4835 C   0  0  0  0  0  0  0  0  0  0  0  0
   -5.2671   -4.7254   -7.4061 O   0  0  0  0  0  0  0  0  0  0  0  0
    0.8656   -4.2844  -11.7407 C   0  0  0  0  0  0  0  0  0  0  0  0
    1.2830   -3.6852  -10.5734 C   0  0  0  0  0  0  0  0  0  0  0  0
    2.4367   -2.9204  -10.5964 C   0  0  0  0  0  0  0  0  0  0  0  0
    2.8999   -2.2659   -9.3397 C   0  0  0  0  0  0  0  0  0  0  0  0
  1  2  1  0
  2  3  2  0
  3  4  1  0
  4  5  1  0
  5  6  2  0
  6  7  1  0
  7  8  2  0
  7  9  1  0
  9 10  1  0
 10 11  2  0
 10 12  1  0
 12 13  2  0
 13 14  1  0
 14 15  1  0
 15 16  1  0
 16 17  1  1
 16 18  1  0
 18 19  1  1
 18 20  1  0
 20 21  1  6
 20 22  1  0
 22 23  1  0
 14 24  1  0
 24 25  1  0
 25 26  2  0
 26 27  1  0
 26  2  1  0
 24  4  2  0
 13  6  1  0
M  END
$$$$
