
     RDKit          3D

 27 29  0  0  0  0  0  0  0  0999 V2000
    4.3578   -1.7357  -11.5060 C   0  0  0  0  0  0  0  0  0  0  0  0
    3.1281   -2.5730  -11.4863 C   0  0  0  0  0  0  0  0  0  0  0  0
    2.7339   -3.1452  -12.6683 C   0  0  0  0  0  0  0  0  0  0  0  0
    1.5813   -3.9383  -12.6823 C   0  0  0  0  0  0  0  0  0  0  0  0
    1.2466   -4.4690  -13.8574 N   0  0  0  0  0  0  0  0  0  0  0  0
    0.1546   -5.2396  -13.9424 C   0  0  0  0  0  0  0  0  0  0  0  0
   -0.2671   -5.8252  -15.0988 C   0  0  0  0  0  0  0  0  0  0  0  0
    0.3981   -5.6375  -16.1459 O   0  0  0  0  0  0  0  0  0  0  0  0
   -1.3763   -6.5739  -15.0519 N   0  0  0  0  0  0  0  0  0  0  0  0
   -2.1042   -6.7912  -13.9523 C   0  0  0  0  0  0  0  0  0  0  0  0
   -3.1524   -7.5281  -14.0227 O   0  0  0  0  0  0  0  0  0  0  0  0
   -1.7226   -6.2342  -12.8005 N   0  0  0  0  0  0  0  0  0  0  0  0
   -0.6270   -5.4668  -12.7375 C   0  0  0  0  0  0  0  0  0  0  0  0
   -0.2692   -4.9143  -11.5397 N   0  0  0  0  0  0  0  0  0  0  0  0
   -1.0691   -5.1657  -10.3790 C   0  0  0  0  0  0  0  0  0  0  0  0
   -2.2688   -4.2193  -10.3088 C   0  0  2  0  0  0  0  0  0  0  0  0
   -1.7890   -2.8894  -10.4387 O   0  0  0  0  0  0  0  0  0  0  0  0
   -2.9956   -4.3133   -8.9955 C   0  0  2  0  0  0  0  0  0  0  0  0
   -2.2183   -3.9451   -7.8944 O   0  0  0  0  0  0  0  0  0  0  0  0
   -3.6329   -5.6296   -8.6986 C   0  0  2  0  0  0  0  0  0  0  0  0
   -4.5359   -5.9883   -9.6652 O   0  0  0  0  0  0  0  0  0  0  0  0
   -4.2163   -5.6933   -7.3011 C   0  0  0  0  0  0  0  0  0  0  0  0
   -5.3098   -4.8245   -7.2401 O   0  0  0  0  0  0  0  0  0  0  0  0
    0.8337   -4.1542  -11.5243 C   0  0  0  0  0  0  0  0  0  0  0  0
    1.2447   -3.5716  -10.3464 C   0  0  0  0  0  0  0  0  0  0  0  0
    2.3880   -2.7910  -10.3563 C   0  0  0  0  0  0  0  0  0  0  0  0
    2.8442   -2.1543   -9.0879 C   0  0  0  0  0  0  0  0  0  0  0  0
  1  2  1  0
  2  3  2  0
  3  4  1  0
  4  5  1  0
  5  6  2  0
  6  7  1  0
  7  8  2  0
  7  9  1  0
  9 10  1  0
 10 11  2  0
 10 12  1  0
 12 13  2  0
 13 14  1  0
 14 15  1  0
 15 16  1  0
 16 17  1  1
 16 18  1  0
 18 19  1  1
 18 20  1  0
 20 21  1  6
 20 22  1  0
 22 23  1  0
 14 24  1  0
 24 25  1  0
 25 26  2  0
 26 27  1  0
 26  2  1  0
 24  4  2  0
 13  6  1  0
M  END
$$$$
