7QF4_RBF
     RDKit          3D

 27 29  0  0  0  0  0  0  0  0999 V2000
    4.3787   -1.9508  -11.4301 C   0  0  0  0  0  0  0  0  0  0  0  0
    3.0351   -2.6613  -11.5415 C   0  0  0  0  0  0  0  0  0  0  0  0
    2.7379   -3.3609  -12.7113 C   0  0  0  0  0  0  0  0  0  0  0  0
    1.5605   -4.0998  -12.8269 C   0  0  0  0  0  0  0  0  0  0  0  0
    1.3190   -4.7200  -14.0338 N   0  0  0  0  0  0  0  0  0  0  0  0
    0.1884   -5.3917  -14.1576 C   0  0  0  0  0  0  0  0  0  0  0  0
   -0.1313   -6.1227  -15.3658 C   0  0  0  0  0  0  0  0  0  0  0  0
    0.6073   -6.1768  -16.3343 O   0  0  0  0  0  0  0  0  0  0  0  0
   -1.2799   -6.8443  -15.4180 N   0  0  0  0  0  0  0  0  0  0  0  0
   -2.2000   -6.8233  -14.4238 C   0  0  0  0  0  0  0  0  0  0  0  0
   -3.2300   -7.4611  -14.5718 O   0  0  0  0  0  0  0  0  0  0  0  0
   -1.9353   -6.2139  -13.2140 N   0  0  0  0  0  0  0  0  0  0  0  0
   -0.8039   -5.5464  -13.0677 C   0  0  0  0  0  0  0  0  0  0  0  0
   -0.4967   -4.9960  -11.8286 N   0  0  0  0  0  0  0  0  0  0  0  0
   -1.4032   -5.2257  -10.6767 C   0  0  0  0  0  0  0  0  0  0  0  0
   -2.5698   -4.2398  -10.6777 C   0  0  2  0  0  0  0  0  0  0  0  0
   -2.1459   -2.9783  -11.1789 O   0  0  0  0  0  0  0  0  0  0  0  0
   -3.0987   -3.9400   -9.2786 C   0  0  2  0  0  0  0  0  0  0  0  0
   -2.0794   -3.2795   -8.5002 O   0  0  0  0  0  0  0  0  0  0  0  0
   -3.6704   -5.1273   -8.5403 C   0  0  2  0  0  0  0  0  0  0  0  0
   -4.8461   -5.6618   -9.1831 O   0  0  0  0  0  0  0  0  0  0  0  0
   -4.0264   -4.6591   -7.1273 C   0  0  0  0  0  0  0  0  0  0  0  0
   -4.1559   -3.2555   -6.8134 O   0  0  0  0  0  0  0  0  0  0  0  0
    0.6567   -4.1931  -11.7461 C   0  0  0  0  0  0  0  0  0  0  0  0
    0.9214   -3.4418  -10.6131 C   0  0  0  0  0  0  0  0  0  0  0  0
    2.0798   -2.7010  -10.4974 C   0  0  0  0  0  0  0  0  0  0  0  0
    2.1952   -1.9784   -9.2066 C   0  0  0  0  0  0  0  0  0  0  0  0
  1  2  1  0
  2  3  2  0
  3  4  1  0
  4  5  1  0
  5  6  2  0
  6  7  1  0
  7  8  2  0
  7  9  1  0
  9 10  1  0
 10 11  2  0
 10 12  1  0
 12 13  2  0
 13 14  1  0
 14 15  1  0
 15 16  1  0
 16 17  1  1
 16 18  1  0
 18 19  1  1
 18 20  1  0
 20 21  1  6
 20 22  1  0
 22 23  1  0
 14 24  1  0
 24 25  1  0
 25 26  2  0
 26 27  1  0
 26  2  1  0
 24  4  2  0
 13  6  1  0
M  END
