
     RDKit          3D

 27 29  0  0  0  0  0  0  0  0999 V2000
    4.3374   -1.8241  -11.5303 C   0  0  0  0  0  0  0  0  0  0  0  0
    3.0972   -2.6458  -11.5165 C   0  0  0  0  0  0  0  0  0  0  0  0
    2.6966   -3.2059  -12.7022 C   0  0  0  0  0  0  0  0  0  0  0  0
    1.5341   -3.9841  -12.7218 C   0  0  0  0  0  0  0  0  0  0  0  0
    1.1936   -4.5034  -13.9003 N   0  0  0  0  0  0  0  0  0  0  0  0
    0.0919   -5.2597  -13.9906 C   0  0  0  0  0  0  0  0  0  0  0  0
   -0.3363   -5.8329  -15.1508 C   0  0  0  0  0  0  0  0  0  0  0  0
    0.3320   -5.6472  -16.1963 O   0  0  0  0  0  0  0  0  0  0  0  0
   -1.4550   -6.5677  -15.1092 N   0  0  0  0  0  0  0  0  0  0  0  0
   -2.1864   -6.7823  -14.0114 C   0  0  0  0  0  0  0  0  0  0  0  0
   -3.2438   -7.5054  -14.0870 O   0  0  0  0  0  0  0  0  0  0  0  0
   -1.7986   -6.2372  -12.8560 N   0  0  0  0  0  0  0  0  0  0  0  0
   -0.6934   -5.4841  -12.7876 C   0  0  0  0  0  0  0  0  0  0  0  0
   -0.3295   -4.9435  -11.5862 N   0  0  0  0  0  0  0  0  0  0  0  0
   -1.1334   -5.1918  -10.4277 C   0  0  0  0  0  0  0  0  0  0  0  0
   -2.3319   -4.2434  -10.3628 C   0  0  2  0  0  0  0  0  0  0  0  0
   -1.8550   -2.9180  -10.5408 O   0  0  0  0  0  0  0  0  0  0  0  0
   -3.0337   -4.2984   -9.0338 C   0  0  2  0  0  0  0  0  0  0  0  0
   -2.2545   -3.8445   -7.9665 O   0  0  0  0  0  0  0  0  0  0  0  0
   -3.6134   -5.6216   -8.6597 C   0  0  2  0  0  0  0  0  0  0  0  0
   -4.5122   -6.0668   -9.5938 O   0  0  0  0  0  0  0  0  0  0  0  0
   -4.1777   -5.6347   -7.2530 C   0  0  0  0  0  0  0  0  0  0  0  0
   -5.2998   -4.8017   -7.2205 O   0  0  0  0  0  0  0  0  0  0  0  0
    0.7829   -4.1975  -11.5656 C   0  0  0  0  0  0  0  0  0  0  0  0
    1.2003   -3.6274  -10.3839 C   0  0  0  0  0  0  0  0  0  0  0  0
    2.3535   -2.8613  -10.3883 C   0  0  0  0  0  0  0  0  0  0  0  0
    2.8167   -2.2380   -9.1158 C   0  0  0  0  0  0  0  0  0  0  0  0
  1  2  1  0
  2  3  2  0
  3  4  1  0
  4  5  1  0
  5  6  2  0
  6  7  1  0
  7  8  2  0
  7  9  1  0
  9 10  1  0
 10 11  2  0
 10 12  1  0
 12 13  2  0
 13 14  1  0
 14 15  1  0
 15 16  1  0
 16 17  1  1
 16 18  1  0
 18 19  1  1
 18 20  1  0
 20 21  1  6
 20 22  1  0
 22 23  1  0
 14 24  1  0
 24 25  1  0
 25 26  2  0
 26 27  1  0
 26  2  1  0
 24  4  2  0
 13  6  1  0
M  END
$$$$
