
     RDKit          3D

 27 29  0  0  0  0  0  0  0  0999 V2000
    4.2748   -1.9147  -11.4657 C   0  0  0  0  0  0  0  0  0  0  0  0
    3.0523   -2.7622  -11.4873 C   0  0  0  0  0  0  0  0  0  0  0  0
    2.7005   -3.3341  -12.6829 C   0  0  0  0  0  0  0  0  0  0  0  0
    1.5557   -4.1367  -12.7356 C   0  0  0  0  0  0  0  0  0  0  0  0
    1.2629   -4.6665  -13.9222 N   0  0  0  0  0  0  0  0  0  0  0  0
    0.1806   -5.4461  -14.0439 C   0  0  0  0  0  0  0  0  0  0  0  0
   -0.1992   -6.0316  -15.2148 C   0  0  0  0  0  0  0  0  0  0  0  0
    0.4972   -5.8351  -16.2397 O   0  0  0  0  0  0  0  0  0  0  0  0
   -1.3031   -6.7897  -15.2051 N   0  0  0  0  0  0  0  0  0  0  0  0
   -2.0635   -7.0164  -14.1297 C   0  0  0  0  0  0  0  0  0  0  0  0
   -3.1027   -7.7618  -14.2354 O   0  0  0  0  0  0  0  0  0  0  0  0
   -1.7233   -6.4598  -12.9649 N   0  0  0  0  0  0  0  0  0  0  0  0
   -0.6367   -5.6834  -12.8650 C   0  0  0  0  0  0  0  0  0  0  0  0
   -0.3217   -5.1317  -11.6549 N   0  0  0  0  0  0  0  0  0  0  0  0
   -1.1559   -5.3934  -10.5209 C   0  0  0  0  0  0  0  0  0  0  0  0
   -2.3877   -4.4865  -10.5094 C   0  0  2  0  0  0  0  0  0  0  0  0
   -1.9636   -3.1637  -10.8030 O   0  0  0  0  0  0  0  0  0  0  0  0
   -3.0649   -4.4583   -9.1669 C   0  0  2  0  0  0  0  0  0  0  0  0
   -2.2886   -3.8847   -8.1567 O   0  0  0  0  0  0  0  0  0  0  0  0
   -3.5816   -5.7681   -8.6725 C   0  0  2  0  0  0  0  0  0  0  0  0
   -4.4889   -6.3183   -9.5400 O   0  0  0  0  0  0  0  0  0  0  0  0
   -4.1042   -5.6905   -7.2519 C   0  0  0  0  0  0  0  0  0  0  0  0
   -5.2368   -4.8712   -7.2431 O   0  0  0  0  0  0  0  0  0  0  0  0
    0.7736   -4.3624  -11.6025 C   0  0  0  0  0  0  0  0  0  0  0  0
    1.1421   -3.7801  -10.4105 C   0  0  0  0  0  0  0  0  0  0  0  0
    2.2786   -2.9899  -10.3820 C   0  0  0  0  0  0  0  0  0  0  0  0
    2.6889   -2.3533   -9.0980 C   0  0  0  0  0  0  0  0  0  0  0  0
  1  2  1  0
  2  3  2  0
  3  4  1  0
  4  5  1  0
  5  6  2  0
  6  7  1  0
  7  8  2  0
  7  9  1  0
  9 10  1  0
 10 11  2  0
 10 12  1  0
 12 13  2  0
 13 14  1  0
 14 15  1  0
 15 16  1  0
 16 17  1  1
 16 18  1  0
 18 19  1  1
 18 20  1  0
 20 21  1  6
 20 22  1  0
 22 23  1  0
 14 24  1  0
 24 25  1  0
 25 26  2  0
 26 27  1  0
 26  2  1  0
 24  4  2  0
 13  6  1  0
M  END
$$$$
