
     RDKit          3D

 27 29  0  0  0  0  0  0  0  0999 V2000
    4.3784   -1.8969  -11.6544 C   0  0  0  0  0  0  0  0  0  0  0  0
    3.1431   -2.7261  -11.6532 C   0  0  0  0  0  0  0  0  0  0  0  0
    2.7783   -3.3187  -12.8346 C   0  0  0  0  0  0  0  0  0  0  0  0
    1.6213   -4.1048  -12.8658 C   0  0  0  0  0  0  0  0  0  0  0  0
    1.3161   -4.6561  -14.0394 N   0  0  0  0  0  0  0  0  0  0  0  0
    0.2217   -5.4216  -14.1402 C   0  0  0  0  0  0  0  0  0  0  0  0
   -0.1713   -6.0269  -15.2966 C   0  0  0  0  0  0  0  0  0  0  0  0
    0.5241   -5.8635  -16.3280 O   0  0  0  0  0  0  0  0  0  0  0  0
   -1.2864   -6.7677  -15.2665 N   0  0  0  0  0  0  0  0  0  0  0  0
   -2.0462   -6.9592  -14.1838 C   0  0  0  0  0  0  0  0  0  0  0  0
   -3.0969   -7.6909  -14.2695 O   0  0  0  0  0  0  0  0  0  0  0  0
   -1.6932   -6.3824  -13.0327 N   0  0  0  0  0  0  0  0  0  0  0  0
   -0.5948   -5.6206  -12.9537 C   0  0  0  0  0  0  0  0  0  0  0  0
   -0.2669   -5.0473  -11.7570 N   0  0  0  0  0  0  0  0  0  0  0  0
   -1.1007   -5.2713  -10.6147 C   0  0  0  0  0  0  0  0  0  0  0  0
   -2.2604   -4.2751  -10.5626 C   0  0  2  0  0  0  0  0  0  0  0  0
   -1.7243   -2.9675  -10.6992 O   0  0  0  0  0  0  0  0  0  0  0  0
   -3.0013   -4.3274   -9.2550 C   0  0  2  0  0  0  0  0  0  0  0  0
   -2.2141   -3.9983   -8.1485 O   0  0  0  0  0  0  0  0  0  0  0  0
   -3.7096   -5.6075   -8.9605 C   0  0  2  0  0  0  0  0  0  0  0  0
   -4.6359   -5.9107   -9.9241 O   0  0  0  0  0  0  0  0  0  0  0  0
   -4.2889   -5.6450   -7.5604 C   0  0  0  0  0  0  0  0  0  0  0  0
   -5.3545   -4.7422   -7.5001 O   0  0  0  0  0  0  0  0  0  0  0  0
    0.8401   -4.2937  -11.7253 C   0  0  0  0  0  0  0  0  0  0  0  0
    1.2218   -3.6910  -10.5477 C   0  0  0  0  0  0  0  0  0  0  0  0
    2.3701   -2.9177  -10.5405 C   0  0  0  0  0  0  0  0  0  0  0  0
    2.7949   -2.2593   -9.2722 C   0  0  0  0  0  0  0  0  0  0  0  0
  1  2  1  0
  2  3  2  0
  3  4  1  0
  4  5  1  0
  5  6  2  0
  6  7  1  0
  7  8  2  0
  7  9  1  0
  9 10  1  0
 10 11  2  0
 10 12  1  0
 12 13  2  0
 13 14  1  0
 14 15  1  0
 15 16  1  0
 16 17  1  1
 16 18  1  0
 18 19  1  1
 18 20  1  0
 20 21  1  6
 20 22  1  0
 22 23  1  0
 14 24  1  0
 24 25  1  0
 25 26  2  0
 26 27  1  0
 26  2  1  0
 24  4  2  0
 13  6  1  0
M  END
$$$$
