
     RDKit          3D

 27 29  0  0  0  0  0  0  0  0999 V2000
    4.3309   -1.7884  -11.7595 C   0  0  0  0  0  0  0  0  0  0  0  0
    3.0939   -2.6130  -11.7007 C   0  0  0  0  0  0  0  0  0  0  0  0
    2.6681   -3.1981  -12.8653 C   0  0  0  0  0  0  0  0  0  0  0  0
    1.5079   -3.9797  -12.8425 C   0  0  0  0  0  0  0  0  0  0  0  0
    1.1422   -4.5237  -14.0021 N   0  0  0  0  0  0  0  0  0  0  0  0
    0.0412   -5.2846  -14.0519 C   0  0  0  0  0  0  0  0  0  0  0  0
   -0.4116   -5.8824  -15.1902 C   0  0  0  0  0  0  0  0  0  0  0  0
    0.2320   -5.7163  -16.2542 O   0  0  0  0  0  0  0  0  0  0  0  0
   -1.5267   -6.6193  -15.1080 N   0  0  0  0  0  0  0  0  0  0  0  0
   -2.2322   -6.8136  -13.9897 C   0  0  0  0  0  0  0  0  0  0  0  0
   -3.2887   -7.5409  -14.0263 O   0  0  0  0  0  0  0  0  0  0  0  0
   -1.8198   -6.2441  -12.8547 N   0  0  0  0  0  0  0  0  0  0  0  0
   -0.7157   -5.4867  -12.8270 C   0  0  0  0  0  0  0  0  0  0  0  0
   -0.3262   -4.9209  -11.6454 N   0  0  0  0  0  0  0  0  0  0  0  0
   -1.1027   -5.1477  -10.4639 C   0  0  0  0  0  0  0  0  0  0  0  0
   -2.2848   -4.1809  -10.3753 C   0  0  2  0  0  0  0  0  0  0  0  0
   -1.7807   -2.8578  -10.4817 O   0  0  0  0  0  0  0  0  0  0  0  0
   -3.0122   -4.2852   -9.0632 C   0  0  2  0  0  0  0  0  0  0  0  0
   -2.2227   -3.9669   -7.9551 O   0  0  0  0  0  0  0  0  0  0  0  0
   -3.6875   -5.5890   -8.7968 C   0  0  2  0  0  0  0  0  0  0  0  0
   -4.6015   -5.8978   -9.7704 O   0  0  0  0  0  0  0  0  0  0  0  0
   -4.2716   -5.6690   -7.4004 C   0  0  0  0  0  0  0  0  0  0  0  0
   -5.3424   -4.7741   -7.3187 O   0  0  0  0  0  0  0  0  0  0  0  0
    0.7840   -4.1716  -11.6653 C   0  0  0  0  0  0  0  0  0  0  0  0
    1.2265   -3.5764  -10.5053 C   0  0  0  0  0  0  0  0  0  0  0  0
    2.3768   -2.8075  -10.5517 C   0  0  0  0  0  0  0  0  0  0  0  0
    2.8671   -2.1572   -9.3030 C   0  0  0  0  0  0  0  0  0  0  0  0
  1  2  1  0
  2  3  2  0
  3  4  1  0
  4  5  1  0
  5  6  2  0
  6  7  1  0
  7  8  2  0
  7  9  1  0
  9 10  1  0
 10 11  2  0
 10 12  1  0
 12 13  2  0
 13 14  1  0
 14 15  1  0
 15 16  1  0
 16 17  1  1
 16 18  1  0
 18 19  1  1
 18 20  1  0
 20 21  1  6
 20 22  1  0
 22 23  1  0
 14 24  1  0
 24 25  1  0
 25 26  2  0
 26 27  1  0
 26  2  1  0
 24  4  2  0
 13  6  1  0
M  END
$$$$
