
     RDKit          3D

 27 29  0  0  0  0  0  0  0  0999 V2000
    4.2402   -1.6608  -11.5580 C   0  0  0  0  0  0  0  0  0  0  0  0
    3.0290   -2.5246  -11.5748 C   0  0  0  0  0  0  0  0  0  0  0  0
    2.6937   -3.1204  -12.7633 C   0  0  0  0  0  0  0  0  0  0  0  0
    1.5599   -3.9388  -12.8113 C   0  0  0  0  0  0  0  0  0  0  0  0
    1.2829   -4.4916  -13.9913 N   0  0  0  0  0  0  0  0  0  0  0  0
    0.2119   -5.2871  -14.1081 C   0  0  0  0  0  0  0  0  0  0  0  0
   -0.1515   -5.8966  -15.2720 C   0  0  0  0  0  0  0  0  0  0  0  0
    0.5500   -5.7075  -16.2949 O   0  0  0  0  0  0  0  0  0  0  0  0
   -1.2454   -6.6688  -15.2581 N   0  0  0  0  0  0  0  0  0  0  0  0
   -2.0109   -6.8880  -14.1847 C   0  0  0  0  0  0  0  0  0  0  0  0
   -3.0395   -7.6487  -14.2858 O   0  0  0  0  0  0  0  0  0  0  0  0
   -1.6867   -6.3082  -13.0267 N   0  0  0  0  0  0  0  0  0  0  0  0
   -0.6112   -5.5161  -12.9315 C   0  0  0  0  0  0  0  0  0  0  0  0
   -0.3125   -4.9407  -11.7283 N   0  0  0  0  0  0  0  0  0  0  0  0
   -1.1517   -5.1949  -10.5963 C   0  0  0  0  0  0  0  0  0  0  0  0
   -2.3792   -4.2822  -10.5918 C   0  0  2  0  0  0  0  0  0  0  0  0
   -1.9407   -2.9529  -10.8297 O   0  0  0  0  0  0  0  0  0  0  0  0
   -3.0959   -4.2937   -9.2697 C   0  0  2  0  0  0  0  0  0  0  0  0
   -2.3222   -3.8223   -8.2059 O   0  0  0  0  0  0  0  0  0  0  0  0
   -3.6969   -5.5992   -8.8680 C   0  0  2  0  0  0  0  0  0  0  0  0
   -4.6242   -6.0349   -9.7783 O   0  0  0  0  0  0  0  0  0  0  0  0
   -4.2323   -5.5834   -7.4501 C   0  0  0  0  0  0  0  0  0  0  0  0
   -5.3209   -4.7078   -7.3999 O   0  0  0  0  0  0  0  0  0  0  0  0
    0.7723   -4.1563  -11.6804 C   0  0  0  0  0  0  0  0  0  0  0  0
    1.1242   -3.5499  -10.4954 C   0  0  0  0  0  0  0  0  0  0  0  0
    2.2500   -2.7445  -10.4715 C   0  0  0  0  0  0  0  0  0  0  0  0
    2.6424   -2.0818   -9.1952 C   0  0  0  0  0  0  0  0  0  0  0  0
  1  2  1  0
  2  3  2  0
  3  4  1  0
  4  5  1  0
  5  6  2  0
  6  7  1  0
  7  8  2  0
  7  9  1  0
  9 10  1  0
 10 11  2  0
 10 12  1  0
 12 13  2  0
 13 14  1  0
 14 15  1  0
 15 16  1  0
 16 17  1  1
 16 18  1  0
 18 19  1  1
 18 20  1  0
 20 21  1  6
 20 22  1  0
 22 23  1  0
 14 24  1  0
 24 25  1  0
 25 26  2  0
 26 27  1  0
 26  2  1  0
 24  4  2  0
 13  6  1  0
M  END
$$$$
