
     RDKit          3D

 27 29  0  0  0  0  0  0  0  0999 V2000
    4.2416   -1.8840  -11.8964 C   0  0  0  0  0  0  0  0  0  0  0  0
    3.0162   -2.7226  -11.8030 C   0  0  0  0  0  0  0  0  0  0  0  0
    2.5724   -3.3237  -12.9527 C   0  0  0  0  0  0  0  0  0  0  0  0
    1.4224   -4.1188  -12.8973 C   0  0  0  0  0  0  0  0  0  0  0  0
    1.0382   -4.6781  -14.0437 N   0  0  0  0  0  0  0  0  0  0  0  0
   -0.0544   -5.4524  -14.0624 C   0  0  0  0  0  0  0  0  0  0  0  0
   -0.5245   -6.0663  -15.1850 C   0  0  0  0  0  0  0  0  0  0  0  0
    0.0938   -5.9026  -16.2643 O   0  0  0  0  0  0  0  0  0  0  0  0
   -1.6287   -6.8155  -15.0718 N   0  0  0  0  0  0  0  0  0  0  0  0
   -2.3072   -7.0075  -13.9365 C   0  0  0  0  0  0  0  0  0  0  0  0
   -3.3555   -7.7476  -13.9434 O   0  0  0  0  0  0  0  0  0  0  0  0
   -1.8772   -6.4225  -12.8161 N   0  0  0  0  0  0  0  0  0  0  0  0
   -0.7820   -5.6519  -12.8194 C   0  0  0  0  0  0  0  0  0  0  0  0
   -0.3738   -5.0703  -11.6519 N   0  0  0  0  0  0  0  0  0  0  0  0
   -1.1216   -5.2951  -10.4517 C   0  0  0  0  0  0  0  0  0  0  0  0
   -2.2679   -4.2924  -10.3089 C   0  0  2  0  0  0  0  0  0  0  0  0
   -1.7257   -2.9848  -10.4192 O   0  0  0  0  0  0  0  0  0  0  0  0
   -2.9498   -4.3895   -8.9720 C   0  0  2  0  0  0  0  0  0  0  0  0
   -2.1268   -4.0518   -7.8945 O   0  0  0  0  0  0  0  0  0  0  0  0
   -3.6029   -5.6968   -8.6695 C   0  0  2  0  0  0  0  0  0  0  0  0
   -4.5167   -6.0443   -9.6300 O   0  0  0  0  0  0  0  0  0  0  0  0
   -4.1784   -5.7510   -7.2683 C   0  0  0  0  0  0  0  0  0  0  0  0
   -5.2694   -4.8792   -7.2059 O   0  0  0  0  0  0  0  0  0  0  0  0
    0.7266   -4.3082  -11.7029 C   0  0  0  0  0  0  0  0  0  0  0  0
    1.1870   -3.6968  -10.5584 C   0  0  0  0  0  0  0  0  0  0  0  0
    2.3267   -2.9148  -10.6369 C   0  0  0  0  0  0  0  0  0  0  0  0
    2.8361   -2.2470   -9.4052 C   0  0  0  0  0  0  0  0  0  0  0  0
  1  2  1  0
  2  3  2  0
  3  4  1  0
  4  5  1  0
  5  6  2  0
  6  7  1  0
  7  8  2  0
  7  9  1  0
  9 10  1  0
 10 11  2  0
 10 12  1  0
 12 13  2  0
 13 14  1  0
 14 15  1  0
 15 16  1  0
 16 17  1  1
 16 18  1  0
 18 19  1  1
 18 20  1  0
 20 21  1  6
 20 22  1  0
 22 23  1  0
 14 24  1  0
 24 25  1  0
 25 26  2  0
 26 27  1  0
 26  2  1  0
 24  4  2  0
 13  6  1  0
M  END
$$$$
