
     RDKit          3D

 27 29  0  0  0  0  0  0  0  0999 V2000
    4.3388   -1.7714  -11.5648 C   0  0  0  0  0  0  0  0  0  0  0  0
    3.1207   -2.6257  -11.5704 C   0  0  0  0  0  0  0  0  0  0  0  0
    2.7843   -3.2394  -12.7494 C   0  0  0  0  0  0  0  0  0  0  0  0
    1.6441   -4.0494  -12.7868 C   0  0  0  0  0  0  0  0  0  0  0  0
    1.3663   -4.6204  -13.9578 N   0  0  0  0  0  0  0  0  0  0  0  0
    0.2893   -5.4094  -14.0642 C   0  0  0  0  0  0  0  0  0  0  0  0
   -0.0754   -6.0360  -15.2185 C   0  0  0  0  0  0  0  0  0  0  0  0
    0.6306   -5.8704  -16.2423 O   0  0  0  0  0  0  0  0  0  0  0  0
   -1.1755   -6.7992  -15.1946 N   0  0  0  0  0  0  0  0  0  0  0  0
   -1.9460   -6.9936  -14.1200 C   0  0  0  0  0  0  0  0  0  0  0  0
   -2.9803   -7.7477  -14.2111 O   0  0  0  0  0  0  0  0  0  0  0  0
   -1.6207   -6.3963  -12.9712 N   0  0  0  0  0  0  0  0  0  0  0  0
   -0.5391   -5.6112  -12.8865 C   0  0  0  0  0  0  0  0  0  0  0  0
   -0.2395   -5.0174  -11.6925 N   0  0  0  0  0  0  0  0  0  0  0  0
   -1.0841   -5.2452  -10.5589 C   0  0  0  0  0  0  0  0  0  0  0  0
   -2.2946   -4.3099  -10.5643 C   0  0  2  0  0  0  0  0  0  0  0  0
   -1.8371   -2.9990  -10.8609 O   0  0  0  0  0  0  0  0  0  0  0  0
   -2.9839   -4.2586   -9.2286 C   0  0  2  0  0  0  0  0  0  0  0  0
   -2.1913   -3.7306   -8.2061 O   0  0  0  0  0  0  0  0  0  0  0  0
   -3.5687   -5.5452   -8.7497 C   0  0  2  0  0  0  0  0  0  0  0  0
   -4.5126   -6.0302   -9.6171 O   0  0  0  0  0  0  0  0  0  0  0  0
   -4.0741   -5.4611   -7.3232 C   0  0  0  0  0  0  0  0  0  0  0  0
   -5.1929   -4.6233   -7.3007 O   0  0  0  0  0  0  0  0  0  0  0  0
    0.8514   -4.2410  -11.6548 C   0  0  0  0  0  0  0  0  0  0  0  0
    1.2046   -3.6168  -10.4794 C   0  0  0  0  0  0  0  0  0  0  0  0
    2.3367   -2.8201  -10.4660 C   0  0  0  0  0  0  0  0  0  0  0  0
    2.7305   -2.1384   -9.2000 C   0  0  0  0  0  0  0  0  0  0  0  0
  1  2  1  0
  2  3  2  0
  3  4  1  0
  4  5  1  0
  5  6  2  0
  6  7  1  0
  7  8  2  0
  7  9  1  0
  9 10  1  0
 10 11  2  0
 10 12  1  0
 12 13  2  0
 13 14  1  0
 14 15  1  0
 15 16  1  0
 16 17  1  1
 16 18  1  0
 18 19  1  1
 18 20  1  0
 20 21  1  6
 20 22  1  0
 22 23  1  0
 14 24  1  0
 24 25  1  0
 25 26  2  0
 26 27  1  0
 26  2  1  0
 24  4  2  0
 13  6  1  0
M  END
$$$$
