
     RDKit          3D

 27 29  0  0  0  0  0  0  0  0999 V2000
    4.2276   -1.8484  -11.5845 C   0  0  0  0  0  0  0  0  0  0  0  0
    3.0108   -2.7045  -11.5737 C   0  0  0  0  0  0  0  0  0  0  0  0
    2.6181   -3.2601  -12.7641 C   0  0  0  0  0  0  0  0  0  0  0  0
    1.4775   -4.0701  -12.7866 C   0  0  0  0  0  0  0  0  0  0  0  0
    1.1437   -4.5834  -13.9697 N   0  0  0  0  0  0  0  0  0  0  0  0
    0.0629   -5.3688  -14.0630 C   0  0  0  0  0  0  0  0  0  0  0  0
   -0.3569   -5.9386  -15.2279 C   0  0  0  0  0  0  0  0  0  0  0  0
    0.2990   -5.7209  -16.2751 O   0  0  0  0  0  0  0  0  0  0  0  0
   -1.4544   -6.7048  -15.1889 N   0  0  0  0  0  0  0  0  0  0  0  0
   -2.1722   -6.9540  -14.0895 C   0  0  0  0  0  0  0  0  0  0  0  0
   -3.2096   -7.7052  -14.1679 O   0  0  0  0  0  0  0  0  0  0  0  0
   -1.7920   -6.4133  -12.9295 N   0  0  0  0  0  0  0  0  0  0  0  0
   -0.7078   -5.6306  -12.8582 C   0  0  0  0  0  0  0  0  0  0  0  0
   -0.3511   -5.0957  -11.6521 N   0  0  0  0  0  0  0  0  0  0  0  0
   -1.1400   -5.3813  -10.4918 C   0  0  0  0  0  0  0  0  0  0  0  0
   -2.2542   -4.3501  -10.3034 C   0  0  2  0  0  0  0  0  0  0  0  0
   -1.6859   -3.0568  -10.4447 O   0  0  0  0  0  0  0  0  0  0  0  0
   -2.8777   -4.4249   -8.9369 C   0  0  2  0  0  0  0  0  0  0  0  0
   -1.9904   -4.1367   -7.8967 O   0  0  0  0  0  0  0  0  0  0  0  0
   -3.5798   -5.7010   -8.6122 C   0  0  2  0  0  0  0  0  0  0  0  0
   -4.5918   -5.9656   -9.4979 O   0  0  0  0  0  0  0  0  0  0  0  0
   -4.0353   -5.7653   -7.1680 C   0  0  0  0  0  0  0  0  0  0  0  0
   -5.0507   -4.8223   -6.9839 O   0  0  0  0  0  0  0  0  0  0  0  0
    0.7403   -4.3194  -11.6286 C   0  0  0  0  0  0  0  0  0  0  0  0
    1.1496   -3.7531  -10.4422 C   0  0  0  0  0  0  0  0  0  0  0  0
    2.2809   -2.9552  -10.4438 C   0  0  0  0  0  0  0  0  0  0  0  0
    2.7352   -2.3358   -9.1662 C   0  0  0  0  0  0  0  0  0  0  0  0
  1  2  1  0
  2  3  2  0
  3  4  1  0
  4  5  1  0
  5  6  2  0
  6  7  1  0
  7  8  2  0
  7  9  1  0
  9 10  1  0
 10 11  2  0
 10 12  1  0
 12 13  2  0
 13 14  1  0
 14 15  1  0
 15 16  1  0
 16 17  1  1
 16 18  1  0
 18 19  1  1
 18 20  1  0
 20 21  1  6
 20 22  1  0
 22 23  1  0
 14 24  1  0
 24 25  1  0
 25 26  2  0
 26 27  1  0
 26  2  1  0
 24  4  2  0
 13  6  1  0
M  END
$$$$
