
     RDKit          3D

 27 29  0  0  0  0  0  0  0  0999 V2000
    4.1843   -1.7561  -11.6871 C   0  0  0  0  0  0  0  0  0  0  0  0
    2.9812   -2.6298  -11.6346 C   0  0  0  0  0  0  0  0  0  0  0  0
    2.5778   -3.2212  -12.8040 C   0  0  0  0  0  0  0  0  0  0  0  0
    1.4497   -4.0487  -12.7872 C   0  0  0  0  0  0  0  0  0  0  0  0
    1.1047   -4.5967  -13.9513 N   0  0  0  0  0  0  0  0  0  0  0  0
    0.0349   -5.4004  -14.0070 C   0  0  0  0  0  0  0  0  0  0  0  0
   -0.3949   -6.0058  -15.1501 C   0  0  0  0  0  0  0  0  0  0  0  0
    0.2404   -5.8048  -16.2131 O   0  0  0  0  0  0  0  0  0  0  0  0
   -1.4797   -6.7872  -15.0737 N   0  0  0  0  0  0  0  0  0  0  0  0
   -2.1756   -7.0192  -13.9565 C   0  0  0  0  0  0  0  0  0  0  0  0
   -3.2024   -7.7878  -13.9988 O   0  0  0  0  0  0  0  0  0  0  0  0
   -1.7851   -6.4437  -12.8170 N   0  0  0  0  0  0  0  0  0  0  0  0
   -0.7120   -5.6432  -12.7833 C   0  0  0  0  0  0  0  0  0  0  0  0
   -0.3441   -5.0726  -11.5971 N   0  0  0  0  0  0  0  0  0  0  0  0
   -1.1096   -5.3406  -10.4171 C   0  0  0  0  0  0  0  0  0  0  0  0
   -2.2714   -4.3568  -10.2667 C   0  0  2  0  0  0  0  0  0  0  0  0
   -1.7463   -3.0400  -10.3438 O   0  0  0  0  0  0  0  0  0  0  0  0
   -2.9666   -4.4911   -8.9399 C   0  0  2  0  0  0  0  0  0  0  0  0
   -2.1416   -4.2295   -7.8431 O   0  0  0  0  0  0  0  0  0  0  0  0
   -3.6648   -5.7882   -8.7008 C   0  0  2  0  0  0  0  0  0  0  0  0
   -4.5934   -6.0539   -9.6732 O   0  0  0  0  0  0  0  0  0  0  0  0
   -4.2374   -5.8932   -7.3014 C   0  0  0  0  0  0  0  0  0  0  0  0
   -5.2651   -4.9542   -7.1741 O   0  0  0  0  0  0  0  0  0  0  0  0
    0.7353   -4.2796  -11.6112 C   0  0  0  0  0  0  0  0  0  0  0  0
    1.1550   -3.6774  -10.4463 C   0  0  0  0  0  0  0  0  0  0  0  0
    2.2737   -2.8628  -10.4868 C   0  0  0  0  0  0  0  0  0  0  0  0
    2.7390   -2.2045   -9.2328 C   0  0  0  0  0  0  0  0  0  0  0  0
  1  2  1  0
  2  3  2  0
  3  4  1  0
  4  5  1  0
  5  6  2  0
  6  7  1  0
  7  8  2  0
  7  9  1  0
  9 10  1  0
 10 11  2  0
 10 12  1  0
 12 13  2  0
 13 14  1  0
 14 15  1  0
 15 16  1  0
 16 17  1  1
 16 18  1  0
 18 19  1  1
 18 20  1  0
 20 21  1  6
 20 22  1  0
 22 23  1  0
 14 24  1  0
 24 25  1  0
 25 26  2  0
 26 27  1  0
 26  2  1  0
 24  4  2  0
 13  6  1  0
M  END
$$$$
