
     RDKit          3D

 27 29  0  0  0  0  0  0  0  0999 V2000
    4.3960   -1.8707  -11.7187 C   0  0  0  0  0  0  0  0  0  0  0  0
    3.1582   -2.6959  -11.6975 C   0  0  0  0  0  0  0  0  0  0  0  0
    2.7787   -3.2965  -12.8703 C   0  0  0  0  0  0  0  0  0  0  0  0
    1.6190   -4.0791  -12.8827 C   0  0  0  0  0  0  0  0  0  0  0  0
    1.2992   -4.6385  -14.0486 N   0  0  0  0  0  0  0  0  0  0  0  0
    0.2015   -5.4012  -14.1315 C   0  0  0  0  0  0  0  0  0  0  0  0
   -0.2061   -6.0142  -15.2788 C   0  0  0  0  0  0  0  0  0  0  0  0
    0.4785   -5.8610  -16.3189 O   0  0  0  0  0  0  0  0  0  0  0  0
   -1.3231   -6.7512  -15.2307 N   0  0  0  0  0  0  0  0  0  0  0  0
   -2.0716   -6.9318  -14.1384 C   0  0  0  0  0  0  0  0  0  0  0  0
   -3.1254   -7.6608  -14.2069 O   0  0  0  0  0  0  0  0  0  0  0  0
   -1.7042   -6.3473  -12.9957 N   0  0  0  0  0  0  0  0  0  0  0  0
   -0.6026   -5.5884  -12.9345 C   0  0  0  0  0  0  0  0  0  0  0  0
   -0.2599   -5.0069  -11.7461 N   0  0  0  0  0  0  0  0  0  0  0  0
   -1.0818   -5.2193  -10.5930 C   0  0  0  0  0  0  0  0  0  0  0  0
   -2.3175   -4.3178  -10.6111 C   0  0  2  0  0  0  0  0  0  0  0  0
   -1.8867   -2.9845  -10.8401 O   0  0  0  0  0  0  0  0  0  0  0  0
   -3.0587   -4.3368   -9.3027 C   0  0  2  0  0  0  0  0  0  0  0  0
   -2.3156   -3.8425   -8.2276 O   0  0  0  0  0  0  0  0  0  0  0  0
   -3.6392   -5.6525   -8.9040 C   0  0  2  0  0  0  0  0  0  0  0  0
   -4.5006   -6.1380   -9.8531 O   0  0  0  0  0  0  0  0  0  0  0  0
   -4.2523   -5.6238   -7.5181 C   0  0  0  0  0  0  0  0  0  0  0  0
   -5.4002   -4.8272   -7.5604 O   0  0  0  0  0  0  0  0  0  0  0  0
    0.8498   -4.2566  -11.7323 C   0  0  0  0  0  0  0  0  0  0  0  0
    1.2462   -3.6460  -10.5637 C   0  0  0  0  0  0  0  0  0  0  0  0
    2.3970   -2.8764  -10.5750 C   0  0  0  0  0  0  0  0  0  0  0  0
    2.8376   -2.2096   -9.3166 C   0  0  0  0  0  0  0  0  0  0  0  0
  1  2  1  0
  2  3  2  0
  3  4  1  0
  4  5  1  0
  5  6  2  0
  6  7  1  0
  7  8  2  0
  7  9  1  0
  9 10  1  0
 10 11  2  0
 10 12  1  0
 12 13  2  0
 13 14  1  0
 14 15  1  0
 15 16  1  0
 16 17  1  1
 16 18  1  0
 18 19  1  1
 18 20  1  0
 20 21  1  6
 20 22  1  0
 22 23  1  0
 14 24  1  0
 24 25  1  0
 25 26  2  0
 26 27  1  0
 26  2  1  0
 24  4  2  0
 13  6  1  0
M  END
$$$$
