
     RDKit          3D

 27 29  0  0  0  0  0  0  0  0999 V2000
    4.4444   -1.7457  -11.6459 C   0  0  0  0  0  0  0  0  0  0  0  0
    3.2032   -2.5661  -11.6457 C   0  0  0  0  0  0  0  0  0  0  0  0
    2.8115   -3.1204  -12.8370 C   0  0  0  0  0  0  0  0  0  0  0  0
    1.6484   -3.8973  -12.8693 C   0  0  0  0  0  0  0  0  0  0  0  0
    1.3167   -4.4109  -14.0529 N   0  0  0  0  0  0  0  0  0  0  0  0
    0.2150   -5.1656  -14.1554 C   0  0  0  0  0  0  0  0  0  0  0  0
   -0.2046   -5.7330  -15.3216 C   0  0  0  0  0  0  0  0  0  0  0  0
    0.4721   -5.5433  -16.3608 O   0  0  0  0  0  0  0  0  0  0  0  0
   -1.3243   -6.4669  -15.2921 N   0  0  0  0  0  0  0  0  0  0  0  0
   -2.0645   -6.6858  -14.2011 C   0  0  0  0  0  0  0  0  0  0  0  0
   -3.1221   -7.4074  -14.2883 O   0  0  0  0  0  0  0  0  0  0  0  0
   -1.6853   -6.1464  -13.0402 N   0  0  0  0  0  0  0  0  0  0  0  0
   -0.5800   -5.3947  -12.9597 C   0  0  0  0  0  0  0  0  0  0  0  0
   -0.2251   -4.8600  -11.7530 N   0  0  0  0  0  0  0  0  0  0  0  0
   -1.0384   -5.1127  -10.6019 C   0  0  0  0  0  0  0  0  0  0  0  0
   -2.2588   -4.1912  -10.5641 C   0  0  2  0  0  0  0  0  0  0  0  0
   -1.8032   -2.8517  -10.6825 O   0  0  0  0  0  0  0  0  0  0  0  0
   -3.0177   -4.2997   -9.2703 C   0  0  2  0  0  0  0  0  0  0  0  0
   -2.2664   -3.9484   -8.1458 O   0  0  0  0  0  0  0  0  0  0  0  0
   -3.6660   -5.6176   -9.0061 C   0  0  2  0  0  0  0  0  0  0  0  0
   -4.5648   -5.9490   -9.9864 O   0  0  0  0  0  0  0  0  0  0  0  0
   -4.2596   -5.7073   -7.6143 C   0  0  0  0  0  0  0  0  0  0  0  0
   -5.3333   -4.8157   -7.5349 O   0  0  0  0  0  0  0  0  0  0  0  0
    0.8879   -4.1152  -11.7201 C   0  0  0  0  0  0  0  0  0  0  0  0
    1.2965   -3.5509  -10.5326 C   0  0  0  0  0  0  0  0  0  0  0  0
    2.4504   -2.7860  -10.5244 C   0  0  0  0  0  0  0  0  0  0  0  0
    2.9043   -2.1690   -9.2454 C   0  0  0  0  0  0  0  0  0  0  0  0
  1  2  1  0
  2  3  2  0
  3  4  1  0
  4  5  1  0
  5  6  2  0
  6  7  1  0
  7  8  2  0
  7  9  1  0
  9 10  1  0
 10 11  2  0
 10 12  1  0
 12 13  2  0
 13 14  1  0
 14 15  1  0
 15 16  1  0
 16 17  1  1
 16 18  1  0
 18 19  1  1
 18 20  1  0
 20 21  1  6
 20 22  1  0
 22 23  1  0
 14 24  1  0
 24 25  1  0
 25 26  2  0
 26 27  1  0
 26  2  1  0
 24  4  2  0
 13  6  1  0
M  END
$$$$
