
     RDKit          3D

 27 29  0  0  0  0  0  0  0  0999 V2000
    4.2385   -1.6871  -11.6177 C   0  0  0  0  0  0  0  0  0  0  0  0
    3.0315   -2.5568  -11.6027 C   0  0  0  0  0  0  0  0  0  0  0  0
    2.6484   -3.1270  -12.7893 C   0  0  0  0  0  0  0  0  0  0  0  0
    1.5172   -3.9502  -12.8078 C   0  0  0  0  0  0  0  0  0  0  0  0
    1.1924   -4.4773  -13.9873 N   0  0  0  0  0  0  0  0  0  0  0  0
    0.1209   -5.2758  -14.0767 C   0  0  0  0  0  0  0  0  0  0  0  0
   -0.2892   -5.8603  -15.2378 C   0  0  0  0  0  0  0  0  0  0  0  0
    0.3670   -5.6441  -16.2850 O   0  0  0  0  0  0  0  0  0  0  0  0
   -1.3781   -6.6386  -15.1950 N   0  0  0  0  0  0  0  0  0  0  0  0
   -2.0960   -6.8866  -14.0954 C   0  0  0  0  0  0  0  0  0  0  0  0
   -3.1245   -7.6502  -14.1700 O   0  0  0  0  0  0  0  0  0  0  0  0
   -1.7251   -6.3317  -12.9391 N   0  0  0  0  0  0  0  0  0  0  0  0
   -0.6500   -5.5361  -12.8717 C   0  0  0  0  0  0  0  0  0  0  0  0
   -0.3027   -4.9869  -11.6693 N   0  0  0  0  0  0  0  0  0  0  0  0
   -1.0915   -5.2715  -10.5087 C   0  0  0  0  0  0  0  0  0  0  0  0
   -2.3277   -4.3734  -10.4365 C   0  0  2  0  0  0  0  0  0  0  0  0
   -1.9093   -3.0313  -10.6352 O   0  0  0  0  0  0  0  0  0  0  0  0
   -3.0081   -4.4430   -9.0971 C   0  0  2  0  0  0  0  0  0  0  0  0
   -2.2190   -3.9818   -8.0403 O   0  0  0  0  0  0  0  0  0  0  0  0
   -3.5630   -5.7757   -8.7191 C   0  0  2  0  0  0  0  0  0  0  0  0
   -4.4572   -6.2379   -9.6493 O   0  0  0  0  0  0  0  0  0  0  0  0
   -4.1218   -5.7966   -7.3103 C   0  0  0  0  0  0  0  0  0  0  0  0
   -5.2415   -4.9608   -7.2679 O   0  0  0  0  0  0  0  0  0  0  0  0
    0.7797   -4.1979  -11.6496 C   0  0  0  0  0  0  0  0  0  0  0  0
    1.1793   -3.6169  -10.4671 C   0  0  0  0  0  0  0  0  0  0  0  0
    2.3015   -2.8062  -10.4726 C   0  0  0  0  0  0  0  0  0  0  0  0
    2.7452   -2.1708   -9.1991 C   0  0  0  0  0  0  0  0  0  0  0  0
  1  2  1  0
  2  3  2  0
  3  4  1  0
  4  5  1  0
  5  6  2  0
  6  7  1  0
  7  8  2  0
  7  9  1  0
  9 10  1  0
 10 11  2  0
 10 12  1  0
 12 13  2  0
 13 14  1  0
 14 15  1  0
 15 16  1  0
 16 17  1  1
 16 18  1  0
 18 19  1  1
 18 20  1  0
 20 21  1  6
 20 22  1  0
 22 23  1  0
 14 24  1  0
 24 25  1  0
 25 26  2  0
 26 27  1  0
 26  2  1  0
 24  4  2  0
 13  6  1  0
M  END
$$$$
