
     RDKit          3D

 27 29  0  0  0  0  0  0  0  0999 V2000
    4.3212   -1.8730  -11.3689 C   0  0  0  0  0  0  0  0  0  0  0  0
    3.1016   -2.7247  -11.3957 C   0  0  0  0  0  0  0  0  0  0  0  0
    2.7427   -3.2772  -12.5982 C   0  0  0  0  0  0  0  0  0  0  0  0
    1.6004   -4.0832  -12.6559 C   0  0  0  0  0  0  0  0  0  0  0  0
    1.3003   -4.5936  -13.8492 N   0  0  0  0  0  0  0  0  0  0  0  0
    0.2200   -5.3750  -13.9759 C   0  0  0  0  0  0  0  0  0  0  0  0
   -0.1668   -5.9417  -15.1537 C   0  0  0  0  0  0  0  0  0  0  0  0
    0.5208   -5.7249  -16.1804 O   0  0  0  0  0  0  0  0  0  0  0  0
   -1.2678   -6.7040  -15.1486 N   0  0  0  0  0  0  0  0  0  0  0  0
   -2.0190   -6.9522  -14.0714 C   0  0  0  0  0  0  0  0  0  0  0  0
   -3.0562   -7.6996  -14.1819 O   0  0  0  0  0  0  0  0  0  0  0  0
   -1.6717   -6.4145  -12.8998 N   0  0  0  0  0  0  0  0  0  0  0  0
   -0.5873   -5.6358  -12.7950 C   0  0  0  0  0  0  0  0  0  0  0  0
   -0.2648   -5.1038  -11.5780 N   0  0  0  0  0  0  0  0  0  0  0  0
   -1.0891   -5.3881  -10.4422 C   0  0  0  0  0  0  0  0  0  0  0  0
   -2.2151   -4.3631  -10.2956 C   0  0  2  0  0  0  0  0  0  0  0  0
   -1.6372   -3.0666  -10.3252 O   0  0  0  0  0  0  0  0  0  0  0  0
   -2.9496   -4.5029   -8.9907 C   0  0  2  0  0  0  0  0  0  0  0  0
   -2.1403   -4.3186   -7.8667 O   0  0  0  0  0  0  0  0  0  0  0  0
   -3.7185   -5.7691   -8.8105 C   0  0  2  0  0  0  0  0  0  0  0  0
   -4.6424   -5.9504   -9.8065 O   0  0  0  0  0  0  0  0  0  0  0  0
   -4.3204   -5.8940   -7.4251 C   0  0  0  0  0  0  0  0  0  0  0  0
   -5.3279   -4.9338   -7.2941 O   0  0  0  0  0  0  0  0  0  0  0  0
    0.8281   -4.3314  -11.5208 C   0  0  0  0  0  0  0  0  0  0  0  0
    1.2037   -3.7682  -10.3218 C   0  0  0  0  0  0  0  0  0  0  0  0
    2.3375   -2.9744  -10.2885 C   0  0  0  0  0  0  0  0  0  0  0  0
    2.7555   -2.3584   -8.9969 C   0  0  0  0  0  0  0  0  0  0  0  0
  1  2  1  0
  2  3  2  0
  3  4  1  0
  4  5  1  0
  5  6  2  0
  6  7  1  0
  7  8  2  0
  7  9  1  0
  9 10  1  0
 10 11  2  0
 10 12  1  0
 12 13  2  0
 13 14  1  0
 14 15  1  0
 15 16  1  0
 16 17  1  1
 16 18  1  0
 18 19  1  1
 18 20  1  0
 20 21  1  6
 20 22  1  0
 22 23  1  0
 14 24  1  0
 24 25  1  0
 25 26  2  0
 26 27  1  0
 26  2  1  0
 24  4  2  0
 13  6  1  0
M  END
$$$$
