
     RDKit          3D

 27 29  0  0  0  0  0  0  0  0999 V2000
    4.2252   -1.8308  -11.7084 C   0  0  0  0  0  0  0  0  0  0  0  0
    2.9984   -2.6719  -11.6727 C   0  0  0  0  0  0  0  0  0  0  0  0
    2.5796   -3.2293  -12.8533 C   0  0  0  0  0  0  0  0  0  0  0  0
    1.4290   -4.0255  -12.8525 C   0  0  0  0  0  0  0  0  0  0  0  0
    1.0698   -4.5413  -14.0270 N   0  0  0  0  0  0  0  0  0  0  0  0
   -0.0219   -5.3140  -14.0981 C   0  0  0  0  0  0  0  0  0  0  0  0
   -0.4676   -5.8852  -15.2527 C   0  0  0  0  0  0  0  0  0  0  0  0
    0.1737   -5.6814  -16.3116 O   0  0  0  0  0  0  0  0  0  0  0  0
   -1.5735   -6.6377  -15.1913 N   0  0  0  0  0  0  0  0  0  0  0  0
   -2.2762   -6.8719  -14.0789 C   0  0  0  0  0  0  0  0  0  0  0  0
   -3.3238   -7.6108  -14.1360 O   0  0  0  0  0  0  0  0  0  0  0  0
   -1.8706   -6.3294  -12.9284 N   0  0  0  0  0  0  0  0  0  0  0  0
   -0.7759   -5.5596  -12.8793 C   0  0  0  0  0  0  0  0  0  0  0  0
   -0.3930   -5.0223  -11.6824 N   0  0  0  0  0  0  0  0  0  0  0  0
   -1.1663   -5.2916  -10.5078 C   0  0  0  0  0  0  0  0  0  0  0  0
   -2.4232   -4.4216  -10.4519 C   0  0  2  0  0  0  0  0  0  0  0  0
   -2.0386   -3.0760  -10.6913 O   0  0  0  0  0  0  0  0  0  0  0  0
   -3.0929   -4.4695   -9.1062 C   0  0  2  0  0  0  0  0  0  0  0  0
   -2.3245   -3.9224   -8.0753 O   0  0  0  0  0  0  0  0  0  0  0  0
   -3.5747   -5.8121   -8.6679 C   0  0  2  0  0  0  0  0  0  0  0  0
   -4.4357   -6.3669   -9.5787 O   0  0  0  0  0  0  0  0  0  0  0  0
   -4.1405   -5.7986   -7.2618 C   0  0  0  0  0  0  0  0  0  0  0  0
   -5.2976   -5.0143   -7.2599 O   0  0  0  0  0  0  0  0  0  0  0  0
    0.7079   -4.2592  -11.6812 C   0  0  0  0  0  0  0  0  0  0  0  0
    1.1434   -3.6913  -10.5049 C   0  0  0  0  0  0  0  0  0  0  0  0
    2.2841   -2.9073  -10.5297 C   0  0  0  0  0  0  0  0  0  0  0  0
    2.7667   -2.2863   -9.2632 C   0  0  0  0  0  0  0  0  0  0  0  0
  1  2  1  0
  2  3  2  0
  3  4  1  0
  4  5  1  0
  5  6  2  0
  6  7  1  0
  7  8  2  0
  7  9  1  0
  9 10  1  0
 10 11  2  0
 10 12  1  0
 12 13  2  0
 13 14  1  0
 14 15  1  0
 15 16  1  0
 16 17  1  1
 16 18  1  0
 18 19  1  1
 18 20  1  0
 20 21  1  6
 20 22  1  0
 22 23  1  0
 14 24  1  0
 24 25  1  0
 25 26  2  0
 26 27  1  0
 26  2  1  0
 24  4  2  0
 13  6  1  0
M  END
$$$$
