
     RDKit          3D

 27 29  0  0  0  0  0  0  0  0999 V2000
    4.2451   -1.7521  -11.5744 C   0  0  0  0  0  0  0  0  0  0  0  0
    3.0403   -2.6249  -11.5586 C   0  0  0  0  0  0  0  0  0  0  0  0
    2.6488   -3.1837  -12.7479 C   0  0  0  0  0  0  0  0  0  0  0  0
    1.5194   -4.0093  -12.7657 C   0  0  0  0  0  0  0  0  0  0  0  0
    1.1863   -4.5250  -13.9479 N   0  0  0  0  0  0  0  0  0  0  0  0
    0.1159   -5.3251  -14.0369 C   0  0  0  0  0  0  0  0  0  0  0  0
   -0.3024   -5.8986  -15.2006 C   0  0  0  0  0  0  0  0  0  0  0  0
    0.3448   -5.6699  -16.2509 O   0  0  0  0  0  0  0  0  0  0  0  0
   -1.3890   -6.6799  -15.1571 N   0  0  0  0  0  0  0  0  0  0  0  0
   -2.0973   -6.9409  -14.0542 C   0  0  0  0  0  0  0  0  0  0  0  0
   -3.1247   -7.7062  -14.1284 O   0  0  0  0  0  0  0  0  0  0  0  0
   -1.7183   -6.3971  -12.8953 N   0  0  0  0  0  0  0  0  0  0  0  0
   -0.6446   -5.5997  -12.8284 C   0  0  0  0  0  0  0  0  0  0  0  0
   -0.2887   -5.0621  -11.6232 N   0  0  0  0  0  0  0  0  0  0  0  0
   -1.0673   -5.3606  -10.4593 C   0  0  0  0  0  0  0  0  0  0  0  0
   -2.2159   -4.3659  -10.2825 C   0  0  2  0  0  0  0  0  0  0  0  0
   -1.6730   -3.0546  -10.3216 O   0  0  0  0  0  0  0  0  0  0  0  0
   -2.9151   -4.5282   -8.9609 C   0  0  2  0  0  0  0  0  0  0  0  0
   -2.0739   -4.3722   -7.8562 O   0  0  0  0  0  0  0  0  0  0  0  0
   -3.6870   -5.7933   -8.7856 C   0  0  2  0  0  0  0  0  0  0  0  0
   -4.6511   -5.9397   -9.7487 O   0  0  0  0  0  0  0  0  0  0  0  0
   -4.2347   -5.9527   -7.3813 C   0  0  0  0  0  0  0  0  0  0  0  0
   -5.2044   -4.9679   -7.1720 O   0  0  0  0  0  0  0  0  0  0  0  0
    0.7920   -4.2708  -11.6042 C   0  0  0  0  0  0  0  0  0  0  0  0
    1.1999   -3.7011  -10.4190 C   0  0  0  0  0  0  0  0  0  0  0  0
    2.3201   -2.8877  -10.4253 C   0  0  0  0  0  0  0  0  0  0  0  0
    2.7727   -2.2644   -9.1489 C   0  0  0  0  0  0  0  0  0  0  0  0
  1  2  1  0
  2  3  2  0
  3  4  1  0
  4  5  1  0
  5  6  2  0
  6  7  1  0
  7  8  2  0
  7  9  1  0
  9 10  1  0
 10 11  2  0
 10 12  1  0
 12 13  2  0
 13 14  1  0
 14 15  1  0
 15 16  1  0
 16 17  1  1
 16 18  1  0
 18 19  1  1
 18 20  1  0
 20 21  1  6
 20 22  1  0
 22 23  1  0
 14 24  1  0
 24 25  1  0
 25 26  2  0
 26 27  1  0
 26  2  1  0
 24  4  2  0
 13  6  1  0
M  END
$$$$
