
     RDKit          3D

 27 29  0  0  0  0  0  0  0  0999 V2000
    4.3327   -1.8636  -11.7144 C   0  0  0  0  0  0  0  0  0  0  0  0
    3.0860   -2.6748  -11.6793 C   0  0  0  0  0  0  0  0  0  0  0  0
    2.6632   -3.2355  -12.8570 C   0  0  0  0  0  0  0  0  0  0  0  0
    1.4940   -4.0040  -12.8566 C   0  0  0  0  0  0  0  0  0  0  0  0
    1.1318   -4.5244  -14.0281 N   0  0  0  0  0  0  0  0  0  0  0  0
    0.0226   -5.2717  -14.0995 C   0  0  0  0  0  0  0  0  0  0  0  0
   -0.4275   -5.8452  -15.2512 C   0  0  0  0  0  0  0  0  0  0  0  0
    0.2267   -5.6688  -16.3071 O   0  0  0  0  0  0  0  0  0  0  0  0
   -1.5516   -6.5704  -15.1904 N   0  0  0  0  0  0  0  0  0  0  0  0
   -2.2684   -6.7752  -14.0812 C   0  0  0  0  0  0  0  0  0  0  0  0
   -3.3328   -7.4896  -14.1386 O   0  0  0  0  0  0  0  0  0  0  0  0
   -1.8590   -6.2295  -12.9336 N   0  0  0  0  0  0  0  0  0  0  0  0
   -0.7466   -5.4854  -12.8842 C   0  0  0  0  0  0  0  0  0  0  0  0
   -0.3605   -4.9439  -11.6903 N   0  0  0  0  0  0  0  0  0  0  0  0
   -1.1492   -5.1814  -10.5190 C   0  0  0  0  0  0  0  0  0  0  0  0
   -2.3847   -4.2802  -10.4825 C   0  0  2  0  0  0  0  0  0  0  0  0
   -1.9719   -2.9545  -10.7788 O   0  0  0  0  0  0  0  0  0  0  0  0
   -3.0382   -4.2599   -9.1281 C   0  0  2  0  0  0  0  0  0  0  0  0
   -2.2665   -3.6431   -8.1400 O   0  0  0  0  0  0  0  0  0  0  0  0
   -3.4945   -5.5818   -8.6073 C   0  0  2  0  0  0  0  0  0  0  0  0
   -4.3752   -6.1903   -9.4633 O   0  0  0  0  0  0  0  0  0  0  0  0
   -4.0209   -5.4997   -7.1883 C   0  0  0  0  0  0  0  0  0  0  0  0
   -5.2079   -4.7614   -7.2006 O   0  0  0  0  0  0  0  0  0  0  0  0
    0.7583   -4.2072  -11.6887 C   0  0  0  0  0  0  0  0  0  0  0  0
    1.1980   -3.6365  -10.5153 C   0  0  0  0  0  0  0  0  0  0  0  0
    2.3573   -2.8802  -10.5395 C   0  0  0  0  0  0  0  0  0  0  0  0
    2.8446   -2.2565   -9.2762 C   0  0  0  0  0  0  0  0  0  0  0  0
  1  2  1  0
  2  3  2  0
  3  4  1  0
  4  5  1  0
  5  6  2  0
  6  7  1  0
  7  8  2  0
  7  9  1  0
  9 10  1  0
 10 11  2  0
 10 12  1  0
 12 13  2  0
 13 14  1  0
 14 15  1  0
 15 16  1  0
 16 17  1  1
 16 18  1  0
 18 19  1  1
 18 20  1  0
 20 21  1  6
 20 22  1  0
 22 23  1  0
 14 24  1  0
 24 25  1  0
 25 26  2  0
 26 27  1  0
 26  2  1  0
 24  4  2  0
 13  6  1  0
M  END
$$$$
