
     RDKit          3D

 27 29  0  0  0  0  0  0  0  0999 V2000
    4.3045   -1.7586  -11.6332 C   0  0  0  0  0  0  0  0  0  0  0  0
    3.0798   -2.6034  -11.6222 C   0  0  0  0  0  0  0  0  0  0  0  0
    2.6873   -3.1633  -12.8107 C   0  0  0  0  0  0  0  0  0  0  0  0
    1.5395   -3.9630  -12.8330 C   0  0  0  0  0  0  0  0  0  0  0  0
    1.2063   -4.4811  -14.0141 N   0  0  0  0  0  0  0  0  0  0  0  0
    0.1187   -5.2572  -14.1071 C   0  0  0  0  0  0  0  0  0  0  0  0
   -0.3011   -5.8310  -15.2701 C   0  0  0  0  0  0  0  0  0  0  0  0
    0.3615   -5.6263  -16.3157 O   0  0  0  0  0  0  0  0  0  0  0  0
   -1.4058   -6.5868  -15.2310 N   0  0  0  0  0  0  0  0  0  0  0  0
   -2.1308   -6.8220  -14.1331 C   0  0  0  0  0  0  0  0  0  0  0  0
   -3.1747   -7.5642  -14.2112 O   0  0  0  0  0  0  0  0  0  0  0  0
   -1.7508   -6.2770  -12.9751 N   0  0  0  0  0  0  0  0  0  0  0  0
   -0.6597   -5.5039  -12.9041 C   0  0  0  0  0  0  0  0  0  0  0  0
   -0.3035   -4.9642  -11.6999 N   0  0  0  0  0  0  0  0  0  0  0  0
   -1.1003   -5.2347  -10.5414 C   0  0  0  0  0  0  0  0  0  0  0  0
   -2.3110   -4.3030  -10.4632 C   0  0  2  0  0  0  0  0  0  0  0  0
   -1.8603   -2.9754  -10.6865 O   0  0  0  0  0  0  0  0  0  0  0  0
   -2.9725   -4.3366   -9.1130 C   0  0  2  0  0  0  0  0  0  0  0  0
   -2.1566   -3.8793   -8.0750 O   0  0  0  0  0  0  0  0  0  0  0  0
   -3.5535   -5.6498   -8.7069 C   0  0  2  0  0  0  0  0  0  0  0  0
   -4.5053   -6.0820   -9.5933 O   0  0  0  0  0  0  0  0  0  0  0  0
   -4.0462   -5.6515   -7.2734 C   0  0  0  0  0  0  0  0  0  0  0  0
   -5.1431   -4.7896   -7.1834 O   0  0  0  0  0  0  0  0  0  0  0  0
    0.7948   -4.1977  -11.6767 C   0  0  0  0  0  0  0  0  0  0  0  0
    1.2040   -3.6273  -10.4922 C   0  0  0  0  0  0  0  0  0  0  0  0
    2.3426   -2.8398  -10.4940 C   0  0  0  0  0  0  0  0  0  0  0  0
    2.7968   -2.2161   -9.2185 C   0  0  0  0  0  0  0  0  0  0  0  0
  1  2  1  0
  2  3  2  0
  3  4  1  0
  4  5  1  0
  5  6  2  0
  6  7  1  0
  7  8  2  0
  7  9  1  0
  9 10  1  0
 10 11  2  0
 10 12  1  0
 12 13  2  0
 13 14  1  0
 14 15  1  0
 15 16  1  0
 16 17  1  1
 16 18  1  0
 18 19  1  1
 18 20  1  0
 20 21  1  6
 20 22  1  0
 22 23  1  0
 14 24  1  0
 24 25  1  0
 25 26  2  0
 26 27  1  0
 26  2  1  0
 24  4  2  0
 13  6  1  0
M  END
$$$$
