7QE4_NGA_holo_aligned_esmfold_protein
     RDKit          3D

 15 15  0  0  0  0  0  0  0  0999 V2000
   49.6978   22.1355   70.1088 C   0  0  0  0  0  0  0  0  0  0  0  0
   49.3286   21.1946   71.2561 C   0  0  0  0  0  0  0  0  0  0  0  0
   49.2249   21.6220   72.4014 O   0  0  0  0  0  0  0  0  0  0  0  0
   49.1089   19.8528   71.0111 N   0  0  0  0  0  0  0  0  0  0  0  0
   48.8128   18.8448   72.0531 C   0  0  2  0  0  0  0  0  0  0  0  0
   50.1284   18.2001   72.5687 C   0  0  1  0  0  0  0  0  0  0  0  0
   50.8529   19.0907   73.4464 O   0  0  0  0  0  0  0  0  0  0  0  0
   49.8194   16.9082   73.3399 C   0  0  1  0  0  0  0  0  0  0  0  0
   49.0029   17.2528   74.4804 O   0  0  0  0  0  0  0  0  0  0  0  0
   49.2004   15.8831   72.3496 C   0  0  1  0  0  0  0  0  0  0  0  0
   48.4267   14.7606   73.0785 C   0  0  0  0  0  0  0  0  0  0  0  0
   47.1444   15.1817   73.5635 O   0  0  0  0  0  0  0  0  0  0  0  0
   48.4277   16.4837   71.2729 O   0  0  0  0  0  0  0  0  0  0  0  0
   47.8143   17.7536   71.5450 C   0  0  1  0  0  0  0  0  0  0  0  0
   46.7466   17.4869   72.4468 O   0  0  0  0  0  0  0  0  0  0  0  0
  1  2  1  0
  2  3  2  0
  2  4  1  0
  5  4  1  6
  5  6  1  0
  6  7  1  1
  6  8  1  0
  8  9  1  1
  8 10  1  0
 10 11  1  1
 11 12  1  0
 10 13  1  0
 13 14  1  0
 14 15  1  1
 14  5  1  0
M  END
