
     RDKit          3D

 15 15  0  0  0  0  0  0  0  0999 V2000
   35.4258   -0.4257   90.6795 C   0  0  0  0  0  0  0  0  0  0  0  0
   36.3028    0.5301   89.9563 C   0  0  0  0  0  0  0  0  0  0  0  0
   37.5317    0.3040   89.8091 O   0  0  0  0  0  0  0  0  0  0  0  0
   35.8288    1.7434   89.3898 N   0  0  0  0  0  0  0  0  0  0  0  0
   36.6886    2.7381   88.8503 C   0  0  2  0  0  0  0  0  0  0  0  0
   36.6565    3.9977   89.7101 C   0  0  1  0  0  0  0  0  0  0  0  0
   37.9635    4.4503   89.9827 O   0  0  0  0  0  0  0  0  0  0  0  0
   35.9332    5.1255   89.0667 C   0  0  1  0  0  0  0  0  0  0  0  0
   36.8319    6.0962   88.5671 O   0  0  0  0  0  0  0  0  0  0  0  0
   34.9700    4.7573   88.0086 C   0  0  1  0  0  0  0  0  0  0  0  0
   34.6594    6.0279   87.2029 C   0  0  0  0  0  0  0  0  0  0  0  0
   35.4532    6.1362   86.0878 O   0  0  0  0  0  0  0  0  0  0  0  0
   35.3540    3.7978   87.1317 O   0  0  0  0  0  0  0  0  0  0  0  0
   36.4529    3.0721   87.4127 C   0  0  1  0  0  0  0  0  0  0  0  0
   37.5861    3.7216   86.9235 O   0  0  0  0  0  0  0  0  0  0  0  0
  1  2  1  0
  2  3  2  0
  2  4  1  0
  5  4  1  1
  5  6  1  0
  6  7  1  6
  6  8  1  0
  8  9  1  6
  8 10  1  0
 10 11  1  6
 11 12  1  0
 10 13  1  0
 13 14  1  0
 14 15  1  1
 14  5  1  0
M  END
$$$$
