
     RDKit          3D

 15 15  0  0  0  0  0  0  0  0999 V2000
   35.8111    0.5868   91.2850 C   0  0  0  0  0  0  0  0  0  0  0  0
   36.5897    1.4588   90.3690 C   0  0  0  0  0  0  0  0  0  0  0  0
   37.8476    1.4407   90.3641 O   0  0  0  0  0  0  0  0  0  0  0  0
   35.9842    2.3579   89.4509 N   0  0  0  0  0  0  0  0  0  0  0  0
   36.7275    3.2440   88.6249 C   0  0  2  0  0  0  0  0  0  0  0  0
   36.5722    4.6828   89.1068 C   0  0  1  0  0  0  0  0  0  0  0  0
   37.8269    5.3198   89.1918 O   0  0  0  0  0  0  0  0  0  0  0  0
   35.7260    5.5113   88.2087 C   0  0  1  0  0  0  0  0  0  0  0  0
   36.5110    6.3894   87.4260 O   0  0  0  0  0  0  0  0  0  0  0  0
   34.7950    4.7714   87.3320 C   0  0  1  0  0  0  0  0  0  0  0  0
   34.3422    5.7321   86.2220 C   0  0  0  0  0  0  0  0  0  0  0  0
   35.2247    5.7547   85.1703 O   0  0  0  0  0  0  0  0  0  0  0  0
   35.2682    3.6493   86.7371 O   0  0  0  0  0  0  0  0  0  0  0  0
   36.4410    3.1418   87.1616 C   0  0  1  0  0  0  0  0  0  0  0  0
   37.4933    3.7388   86.4676 O   0  0  0  0  0  0  0  0  0  0  0  0
  1  2  1  0
  2  3  2  0
  2  4  1  0
  5  4  1  1
  5  6  1  0
  6  7  1  6
  6  8  1  0
  8  9  1  6
  8 10  1  0
 10 11  1  6
 11 12  1  0
 10 13  1  0
 13 14  1  0
 14 15  1  6
 14  5  1  0
M  END
$$$$
