
     RDKit          3D

 15 15  0  0  0  0  0  0  0  0999 V2000
   35.3962   -0.4174   90.5755 C   0  0  0  0  0  0  0  0  0  0  0  0
   36.2779    0.5563   89.8824 C   0  0  0  0  0  0  0  0  0  0  0  0
   37.5132    0.3487   89.7654 O   0  0  0  0  0  0  0  0  0  0  0  0
   35.8013    1.7672   89.3129 N   0  0  0  0  0  0  0  0  0  0  0  0
   36.6594    2.7650   88.7763 C   0  0  2  0  0  0  0  0  0  0  0  0
   36.6225    4.0231   89.6380 C   0  0  1  0  0  0  0  0  0  0  0  0
   37.9279    4.4787   89.9134 O   0  0  0  0  0  0  0  0  0  0  0  0
   35.8973    5.1501   88.9952 C   0  0  1  0  0  0  0  0  0  0  0  0
   36.7942    6.1239   88.4986 O   0  0  0  0  0  0  0  0  0  0  0  0
   34.9367    4.7810   87.9350 C   0  0  1  0  0  0  0  0  0  0  0  0
   34.6241    6.0521   87.1308 C   0  0  0  0  0  0  0  0  0  0  0  0
   35.5023    6.2311   86.0905 O   0  0  0  0  0  0  0  0  0  0  0  0
   35.3247    3.8239   87.0572 O   0  0  0  0  0  0  0  0  0  0  0  0
   36.4251    3.1006   87.3388 C   0  0  1  0  0  0  0  0  0  0  0  0
   37.5573    3.7539   86.8524 O   0  0  0  0  0  0  0  0  0  0  0  0
  1  2  1  0
  2  3  2  0
  2  4  1  0
  5  4  1  1
  5  6  1  0
  6  7  1  6
  6  8  1  0
  8  9  1  6
  8 10  1  0
 10 11  1  6
 11 12  1  0
 10 13  1  0
 13 14  1  0
 14 15  1  1
 14  5  1  0
M  END
$$$$
