
     RDKit          3D

 15 15  0  0  0  0  0  0  0  0999 V2000
   35.4351   -0.2776   90.7404 C   0  0  0  0  0  0  0  0  0  0  0  0
   36.3101    0.6612   89.9929 C   0  0  0  0  0  0  0  0  0  0  0  0
   37.5467    0.4554   89.8868 O   0  0  0  0  0  0  0  0  0  0  0  0
   35.8255    1.8352   89.3566 N   0  0  0  0  0  0  0  0  0  0  0  0
   36.6778    2.8211   88.7900 C   0  0  2  0  0  0  0  0  0  0  0  0
   36.6161    4.1122   89.5999 C   0  0  1  0  0  0  0  0  0  0  0  0
   37.9126    4.5945   89.8713 O   0  0  0  0  0  0  0  0  0  0  0  0
   35.8850    5.2035   88.9043 C   0  0  1  0  0  0  0  0  0  0  0  0
   36.7761    6.1677   88.3789 O   0  0  0  0  0  0  0  0  0  0  0  0
   34.9413    4.7804   87.8492 C   0  0  1  0  0  0  0  0  0  0  0  0
   34.6230    6.0143   86.9911 C   0  0  0  0  0  0  0  0  0  0  0  0
   35.4377    6.0979   85.8890 O   0  0  0  0  0  0  0  0  0  0  0  0
   35.3507    3.7938   87.0149 O   0  0  0  0  0  0  0  0  0  0  0  0
   36.4563    3.0960   87.3376 C   0  0  1  0  0  0  0  0  0  0  0  0
   37.5863    3.7431   86.8380 O   0  0  0  0  0  0  0  0  0  0  0  0
  1  2  1  0
  2  3  2  0
  2  4  1  0
  5  4  1  1
  5  6  1  0
  6  7  1  6
  6  8  1  0
  8  9  1  6
  8 10  1  0
 10 11  1  6
 11 12  1  0
 10 13  1  0
 13 14  1  0
 14 15  1  1
 14  5  1  0
M  END
$$$$
