
     RDKit          3D

 15 15  0  0  0  0  0  0  0  0999 V2000
   35.5388   -0.4520   90.6598 C   0  0  0  0  0  0  0  0  0  0  0  0
   36.3989    0.5118   89.9270 C   0  0  0  0  0  0  0  0  0  0  0  0
   37.6309    0.3041   89.7788 O   0  0  0  0  0  0  0  0  0  0  0  0
   35.9044    1.7129   89.3522 N   0  0  0  0  0  0  0  0  0  0  0  0
   36.7464    2.7101   88.7894 C   0  0  2  0  0  0  0  0  0  0  0  0
   36.6915    3.9885   89.6197 C   0  0  1  0  0  0  0  0  0  0  0  0
   37.9901    4.4707   89.8813 O   0  0  0  0  0  0  0  0  0  0  0  0
   35.9482    5.0879   88.9504 C   0  0  1  0  0  0  0  0  0  0  0  0
   36.8295    6.0627   88.4281 O   0  0  0  0  0  0  0  0  0  0  0  0
   34.9919    4.6780   87.9015 C   0  0  1  0  0  0  0  0  0  0  0  0
   34.6587    5.9238   87.0665 C   0  0  0  0  0  0  0  0  0  0  0  0
   35.6128    6.1722   86.1108 O   0  0  0  0  0  0  0  0  0  0  0  0
   35.3932    3.7054   87.0470 O   0  0  0  0  0  0  0  0  0  0  0  0
   36.5049    3.0063   87.3445 C   0  0  1  0  0  0  0  0  0  0  0  0
   37.6263    3.6644   86.8400 O   0  0  0  0  0  0  0  0  0  0  0  0
  1  2  1  0
  2  3  2  0
  2  4  1  0
  5  4  1  1
  5  6  1  0
  6  7  1  6
  6  8  1  0
  8  9  1  6
  8 10  1  0
 10 11  1  6
 11 12  1  0
 10 13  1  0
 13 14  1  0
 14 15  1  1
 14  5  1  0
M  END
$$$$
