
     RDKit          3D

 15 15  0  0  0  0  0  0  0  0999 V2000
   35.3441   -0.3152   90.7431 C   0  0  0  0  0  0  0  0  0  0  0  0
   36.2261    0.5699   89.9404 C   0  0  0  0  0  0  0  0  0  0  0  0
   37.4328    0.2773   89.7375 O   0  0  0  0  0  0  0  0  0  0  0  0
   35.7816    1.7857   89.3554 N   0  0  0  0  0  0  0  0  0  0  0  0
   36.6648    2.7475   88.7944 C   0  0  2  0  0  0  0  0  0  0  0  0
   36.6702    4.0225   89.6317 C   0  0  1  0  0  0  0  0  0  0  0  0
   37.9900    4.4450   89.8904 O   0  0  0  0  0  0  0  0  0  0  0  0
   35.9738    5.1575   88.9715 C   0  0  1  0  0  0  0  0  0  0  0  0
   36.8955    6.0951   88.4507 O   0  0  0  0  0  0  0  0  0  0  0  0
   34.9960    4.7963   87.9245 C   0  0  1  0  0  0  0  0  0  0  0  0
   34.7152    6.0603   87.0976 C   0  0  0  0  0  0  0  0  0  0  0  0
   35.5791    6.1833   86.0374 O   0  0  0  0  0  0  0  0  0  0  0  0
   35.3502    3.8116   87.0631 O   0  0  0  0  0  0  0  0  0  0  0  0
   36.4309    3.0621   87.3521 C   0  0  1  0  0  0  0  0  0  0  0  0
   37.5785    3.6725   86.8464 O   0  0  0  0  0  0  0  0  0  0  0  0
  1  2  1  0
  2  3  2  0
  2  4  1  0
  5  4  1  1
  5  6  1  0
  6  7  1  6
  6  8  1  0
  8  9  1  6
  8 10  1  0
 10 11  1  6
 11 12  1  0
 10 13  1  0
 13 14  1  0
 14 15  1  1
 14  5  1  0
M  END
$$$$
