
     RDKit          3D

 15 15  0  0  0  0  0  0  0  0999 V2000
   35.3560   -0.2231   90.8568 C   0  0  0  0  0  0  0  0  0  0  0  0
   36.2243    0.6453   90.0215 C   0  0  0  0  0  0  0  0  0  0  0  0
   37.4291    0.3514   89.8093 O   0  0  0  0  0  0  0  0  0  0  0  0
   35.7680    1.8454   89.4138 N   0  0  0  0  0  0  0  0  0  0  0  0
   36.6377    2.7818   88.7919 C   0  0  2  0  0  0  0  0  0  0  0  0
   36.6694    4.0881   89.5788 C   0  0  1  0  0  0  0  0  0  0  0  0
   37.9969    4.5157   89.7844 O   0  0  0  0  0  0  0  0  0  0  0  0
   35.9577    5.1993   88.8947 C   0  0  1  0  0  0  0  0  0  0  0  0
   36.8668    6.1128   88.3128 O   0  0  0  0  0  0  0  0  0  0  0  0
   34.9504    4.8014   87.8898 C   0  0  1  0  0  0  0  0  0  0  0  0
   34.6498    6.0335   87.0227 C   0  0  0  0  0  0  0  0  0  0  0  0
   35.5529    6.1734   85.9979 O   0  0  0  0  0  0  0  0  0  0  0  0
   35.2782    3.7829   87.0577 O   0  0  0  0  0  0  0  0  0  0  0  0
   36.3647    3.0413   87.3455 C   0  0  1  0  0  0  0  0  0  0  0  0
   37.4993    3.6278   86.7851 O   0  0  0  0  0  0  0  0  0  0  0  0
  1  2  1  0
  2  3  2  0
  2  4  1  0
  5  4  1  1
  5  6  1  0
  6  7  1  6
  6  8  1  0
  8  9  1  6
  8 10  1  0
 10 11  1  6
 11 12  1  0
 10 13  1  0
 13 14  1  0
 14 15  1  1
 14  5  1  0
M  END
$$$$
