
     RDKit          3D

 15 15  0  0  0  0  0  0  0  0999 V2000
   35.3930   -0.3876   90.7060 C   0  0  0  0  0  0  0  0  0  0  0  0
   36.2824    0.5611   89.9884 C   0  0  0  0  0  0  0  0  0  0  0  0
   37.5157    0.3398   89.8754 O   0  0  0  0  0  0  0  0  0  0  0  0
   35.8158    1.7619   89.3900 N   0  0  0  0  0  0  0  0  0  0  0  0
   36.6821    2.7388   88.8286 C   0  0  2  0  0  0  0  0  0  0  0  0
   36.6530    4.0197   89.6563 C   0  0  1  0  0  0  0  0  0  0  0  0
   37.9612    4.4730   89.9219 O   0  0  0  0  0  0  0  0  0  0  0  0
   35.9371    5.1343   88.9824 C   0  0  1  0  0  0  0  0  0  0  0  0
   36.8419    6.0880   88.4616 O   0  0  0  0  0  0  0  0  0  0  0  0
   34.9756    4.7440   87.9307 C   0  0  1  0  0  0  0  0  0  0  0  0
   34.6735    5.9954   87.0923 C   0  0  0  0  0  0  0  0  0  0  0  0
   35.5552    6.1407   86.0497 O   0  0  0  0  0  0  0  0  0  0  0  0
   35.3579    3.7611   87.0795 O   0  0  0  0  0  0  0  0  0  0  0  0
   36.4526    3.0376   87.3823 C   0  0  1  0  0  0  0  0  0  0  0  0
   37.5903    3.6694   86.8807 O   0  0  0  0  0  0  0  0  0  0  0  0
  1  2  1  0
  2  3  2  0
  2  4  1  0
  5  4  1  1
  5  6  1  0
  6  7  1  6
  6  8  1  0
  8  9  1  6
  8 10  1  0
 10 11  1  6
 11 12  1  0
 10 13  1  0
 13 14  1  0
 14 15  1  1
 14  5  1  0
M  END
$$$$
