
     RDKit          3D

 15 15  0  0  0  0  0  0  0  0999 V2000
   35.5340   -0.3954   90.6195 C   0  0  0  0  0  0  0  0  0  0  0  0
   36.4010    0.5777   89.9075 C   0  0  0  0  0  0  0  0  0  0  0  0
   37.6393    0.3862   89.7940 O   0  0  0  0  0  0  0  0  0  0  0  0
   35.9065    1.7703   89.3150 N   0  0  0  0  0  0  0  0  0  0  0  0
   36.7498    2.7710   88.7608 C   0  0  2  0  0  0  0  0  0  0  0  0
   36.6811    4.0492   89.5904 C   0  0  1  0  0  0  0  0  0  0  0  0
   37.9749    4.5370   89.8652 O   0  0  0  0  0  0  0  0  0  0  0  0
   35.9398    5.1454   88.9137 C   0  0  1  0  0  0  0  0  0  0  0  0
   36.8221    6.1240   88.4003 O   0  0  0  0  0  0  0  0  0  0  0  0
   34.9959    4.7314   87.8552 C   0  0  1  0  0  0  0  0  0  0  0  0
   34.6657    5.9758   87.0169 C   0  0  0  0  0  0  0  0  0  0  0  0
   35.5481    6.1448   85.9785 O   0  0  0  0  0  0  0  0  0  0  0  0
   35.4100    3.7606   87.0048 O   0  0  0  0  0  0  0  0  0  0  0  0
   36.5216    3.0662   87.3135 C   0  0  1  0  0  0  0  0  0  0  0  0
   37.6452    3.7292   86.8203 O   0  0  0  0  0  0  0  0  0  0  0  0
  1  2  1  0
  2  3  2  0
  2  4  1  0
  5  4  1  1
  5  6  1  0
  6  7  1  6
  6  8  1  0
  8  9  1  6
  8 10  1  0
 10 11  1  6
 11 12  1  0
 10 13  1  0
 13 14  1  0
 14 15  1  1
 14  5  1  0
M  END
$$$$
