
     RDKit          3D

 15 15  0  0  0  0  0  0  0  0999 V2000
   35.5673   -0.4762   90.5646 C   0  0  0  0  0  0  0  0  0  0  0  0
   36.4453    0.4874   89.8529 C   0  0  0  0  0  0  0  0  0  0  0  0
   37.6780    0.2726   89.7226 O   0  0  0  0  0  0  0  0  0  0  0  0
   35.9678    1.6961   89.2795 N   0  0  0  0  0  0  0  0  0  0  0  0
   36.8261    2.7046   88.7637 C   0  0  2  0  0  0  0  0  0  0  0  0
   36.7255    3.9745   89.6026 C   0  0  1  0  0  0  0  0  0  0  0  0
   38.0077    4.4632   89.9256 O   0  0  0  0  0  0  0  0  0  0  0  0
   36.0040    5.0751   88.9118 C   0  0  1  0  0  0  0  0  0  0  0  0
   36.9000    6.0611   88.4379 O   0  0  0  0  0  0  0  0  0  0  0  0
   35.0976    4.6686   87.8181 C   0  0  1  0  0  0  0  0  0  0  0  0
   34.7920    5.9201   86.9810 C   0  0  0  0  0  0  0  0  0  0  0  0
   35.6719    6.0678   85.9373 O   0  0  0  0  0  0  0  0  0  0  0  0
   35.5432    3.7073   86.9729 O   0  0  0  0  0  0  0  0  0  0  0  0
   36.6460    3.0131   87.3123 C   0  0  1  0  0  0  0  0  0  0  0  0
   37.7835    3.6840   86.8638 O   0  0  0  0  0  0  0  0  0  0  0  0
  1  2  1  0
  2  3  2  0
  2  4  1  0
  5  4  1  1
  5  6  1  0
  6  7  1  6
  6  8  1  0
  8  9  1  6
  8 10  1  0
 10 11  1  6
 11 12  1  0
 10 13  1  0
 13 14  1  0
 14 15  1  1
 14  5  1  0
M  END
$$$$
