
     RDKit          3D

 15 15  0  0  0  0  0  0  0  0999 V2000
   35.5668   -0.5448   90.4326 C   0  0  0  0  0  0  0  0  0  0  0  0
   36.4454    0.4203   89.7240 C   0  0  0  0  0  0  0  0  0  0  0  0
   37.6667    0.1785   89.5426 O   0  0  0  0  0  0  0  0  0  0  0  0
   35.9814    1.6606   89.2100 N   0  0  0  0  0  0  0  0  0  0  0  0
   36.8455    2.6494   88.6664 C   0  0  2  0  0  0  0  0  0  0  0  0
   36.8158    3.9140   89.5187 C   0  0  1  0  0  0  0  0  0  0  0  0
   38.1237    4.3640   89.7912 O   0  0  0  0  0  0  0  0  0  0  0  0
   36.0973    5.0405   88.8675 C   0  0  1  0  0  0  0  0  0  0  0  0
   37.0001    6.0054   88.3640 O   0  0  0  0  0  0  0  0  0  0  0  0
   35.1349    4.6692   87.8098 C   0  0  1  0  0  0  0  0  0  0  0  0
   34.8299    5.9361   86.9961 C   0  0  0  0  0  0  0  0  0  0  0  0
   35.6825    6.0795   85.9294 O   0  0  0  0  0  0  0  0  0  0  0  0
   35.5174    3.7034   86.9391 O   0  0  0  0  0  0  0  0  0  0  0  0
   36.6135    2.9758   87.2264 C   0  0  1  0  0  0  0  0  0  0  0  0
   37.7497    3.6188   86.7356 O   0  0  0  0  0  0  0  0  0  0  0  0
  1  2  1  0
  2  3  2  0
  2  4  1  0
  5  4  1  1
  5  6  1  0
  6  7  1  6
  6  8  1  0
  8  9  1  6
  8 10  1  0
 10 11  1  6
 11 12  1  0
 10 13  1  0
 13 14  1  0
 14 15  1  1
 14  5  1  0
M  END
$$$$
