
     RDKit          3D

 15 15  0  0  0  0  0  0  0  0999 V2000
   35.4599   -0.5309   90.4870 C   0  0  0  0  0  0  0  0  0  0  0  0
   36.3648    0.4560   89.8446 C   0  0  0  0  0  0  0  0  0  0  0  0
   37.5966    0.2296   89.7247 O   0  0  0  0  0  0  0  0  0  0  0  0
   35.9157    1.7013   89.3294 N   0  0  0  0  0  0  0  0  0  0  0  0
   36.7968    2.7071   88.8479 C   0  0  2  0  0  0  0  0  0  0  0  0
   36.7223    3.9508   89.7279 C   0  0  1  0  0  0  0  0  0  0  0  0
   38.0142    4.4006   90.0681 O   0  0  0  0  0  0  0  0  0  0  0  0
   36.0262    5.0889   89.0727 C   0  0  1  0  0  0  0  0  0  0  0  0
   36.9444    6.0701   88.6323 O   0  0  0  0  0  0  0  0  0  0  0  0
   35.1133    4.7384   87.9652 C   0  0  1  0  0  0  0  0  0  0  0  0
   34.8365    6.0230   87.1692 C   0  0  0  0  0  0  0  0  0  0  0  0
   35.6133    6.1052   86.0400 O   0  0  0  0  0  0  0  0  0  0  0  0
   35.5393    3.7957   87.0895 O   0  0  0  0  0  0  0  0  0  0  0  0
   36.6261    3.0669   87.4072 C   0  0  1  0  0  0  0  0  0  0  0  0
   37.7788    3.7271   86.9822 O   0  0  0  0  0  0  0  0  0  0  0  0
  1  2  1  0
  2  3  2  0
  2  4  1  0
  5  4  1  1
  5  6  1  0
  6  7  1  6
  6  8  1  0
  8  9  1  6
  8 10  1  0
 10 11  1  6
 11 12  1  0
 10 13  1  0
 13 14  1  0
 14 15  1  1
 14  5  1  0
M  END
$$$$
