
     RDKit          3D

 15 15  0  0  0  0  0  0  0  0999 V2000
   23.7604   15.9550  135.9184 C   0  0  0  0  0  0  0  0  0  0  0  0
   22.4745   16.1312  136.6401 C   0  0  0  0  0  0  0  0  0  0  0  0
   21.3889   16.2563  136.0166 O   0  0  0  0  0  0  0  0  0  0  0  0
   22.3778   16.1706  138.0568 N   0  0  0  0  0  0  0  0  0  0  0  0
   21.1815   15.8721  138.7634 C   0  0  2  0  0  0  0  0  0  0  0  0
   20.4516   17.1553  139.1472 C   0  0  1  0  0  0  0  0  0  0  0  0
   19.0840   17.0709  138.8155 O   0  0  0  0  0  0  0  0  0  0  0  0
   20.5266   17.4574  140.6006 C   0  0  1  0  0  0  0  0  0  0  0  0
   19.3062   17.1640  141.2518 O   0  0  0  0  0  0  0  0  0  0  0  0
   21.6405   16.8246  141.3366 C   0  0  1  0  0  0  0  0  0  0  0  0
   21.3092   16.9032  142.8347 C   0  0  0  0  0  0  0  0  0  0  0  0
   20.2827   16.0588  143.1791 O   0  0  0  0  0  0  0  0  0  0  0  0
   21.9168   15.5304  141.0439 O   0  0  0  0  0  0  0  0  0  0  0  0
   21.3493   14.9824  139.9526 C   0  0  1  0  0  0  0  0  0  0  0  0
   20.1012   14.4549  140.2833 O   0  0  0  0  0  0  0  0  0  0  0  0
  1  2  1  0
  2  3  2  0
  2  4  1  0
  5  4  1  1
  5  6  1  0
  6  7  1  1
  6  8  1  0
  8  9  1  1
  8 10  1  0
 10 11  1  1
 11 12  1  0
 10 13  1  0
 13 14  1  0
 14 15  1  1
 14  5  1  0
M  END
$$$$
