
     RDKit          3D

 15 15  0  0  0  0  0  0  0  0999 V2000
   35.2216   -0.2387   90.8246 C   0  0  0  0  0  0  0  0  0  0  0  0
   36.1168    0.6667   90.0600 C   0  0  0  0  0  0  0  0  0  0  0  0
   37.3446    0.4200   89.9391 O   0  0  0  0  0  0  0  0  0  0  0  0
   35.6623    1.8523   89.4230 N   0  0  0  0  0  0  0  0  0  0  0  0
   36.5383    2.8012   88.8297 C   0  0  2  0  0  0  0  0  0  0  0  0
   36.5372    4.1023   89.6258 C   0  0  1  0  0  0  0  0  0  0  0  0
   37.8547    4.5413   89.8681 O   0  0  0  0  0  0  0  0  0  0  0  0
   35.8322    5.2113   88.9313 C   0  0  1  0  0  0  0  0  0  0  0  0
   36.7468    6.1376   88.3788 O   0  0  0  0  0  0  0  0  0  0  0  0
   34.8547    4.8107   87.8984 C   0  0  1  0  0  0  0  0  0  0  0  0
   34.5642    6.0458   87.0322 C   0  0  0  0  0  0  0  0  0  0  0  0
   35.4257    6.1408   85.9672 O   0  0  0  0  0  0  0  0  0  0  0  0
   35.2136    3.8012   87.0681 O   0  0  0  0  0  0  0  0  0  0  0  0
   36.2996    3.0682   87.3786 C   0  0  1  0  0  0  0  0  0  0  0  0
   37.4422    3.6694   86.8512 O   0  0  0  0  0  0  0  0  0  0  0  0
  1  2  1  0
  2  3  2  0
  2  4  1  0
  5  4  1  1
  5  6  1  0
  6  7  1  6
  6  8  1  0
  8  9  1  6
  8 10  1  0
 10 11  1  6
 11 12  1  0
 10 13  1  0
 13 14  1  0
 14 15  1  1
 14  5  1  0
M  END
$$$$
