
     RDKit          3D

 15 15  0  0  0  0  0  0  0  0999 V2000
   77.3489  -19.2189   88.5564 C   0  0  0  0  0  0  0  0  0  0  0  0
   76.5234  -17.9862   88.4876 C   0  0  0  0  0  0  0  0  0  0  0  0
   77.0503  -16.8581   88.3070 O   0  0  0  0  0  0  0  0  0  0  0  0
   75.1089  -17.9903   88.6178 N   0  0  0  0  0  0  0  0  0  0  0  0
   74.3190  -16.8103   88.5594 C   0  0  2  0  0  0  0  0  0  0  0  0
   73.6979  -16.5134   89.9206 C   0  0  1  0  0  0  0  0  0  0  0  0
   73.8858  -15.1611   90.2715 O   0  0  0  0  0  0  0  0  0  0  0  0
   72.2350  -16.7728   89.9641 C   0  0  1  0  0  0  0  0  0  0  0  0
   71.4965  -15.5675   89.9257 O   0  0  0  0  0  0  0  0  0  0  0  0
   71.7117  -17.7022   88.9417 C   0  0  1  0  0  0  0  0  0  0  0  0
   70.1885  -17.5118   88.8794 C   0  0  0  0  0  0  0  0  0  0  0  0
   69.7589  -17.2177   87.6088 O   0  0  0  0  0  0  0  0  0  0  0  0
   72.1947  -17.5692   87.6823 O   0  0  0  0  0  0  0  0  0  0  0  0
   73.2778  -16.7933   87.4872 C   0  0  1  0  0  0  0  0  0  0  0  0
   72.8818  -15.4715   87.2836 O   0  0  0  0  0  0  0  0  0  0  0  0
  1  2  1  0
  2  3  2  0
  2  4  1  0
  5  4  1  1
  5  6  1  0
  6  7  1  6
  6  8  1  0
  8  9  1  6
  8 10  1  0
 10 11  1  6
 11 12  1  0
 10 13  1  0
 13 14  1  0
 14 15  1  1
 14  5  1  0
M  END
$$$$
