
     RDKit          3D

 15 15  0  0  0  0  0  0  0  0999 V2000
   47.9237  -20.2245   98.8069 C   0  0  0  0  0  0  0  0  0  0  0  0
   49.2963  -20.2172   98.2399 C   0  0  0  0  0  0  0  0  0  0  0  0
   50.2235  -20.8832   98.7687 O   0  0  0  0  0  0  0  0  0  0  0  0
   49.6553  -19.4738   97.0839 N   0  0  0  0  0  0  0  0  0  0  0  0
   50.9800  -19.4238   96.5717 C   0  0  2  0  0  0  0  0  0  0  0  0
   51.5857  -18.0405   96.7867 C   0  0  1  0  0  0  0  0  0  0  0  0
   52.8795  -18.1414   97.3372 O   0  0  0  0  0  0  0  0  0  0  0  0
   51.7097  -17.2557   95.5305 C   0  0  1  0  0  0  0  0  0  0  0  0
   53.0482  -17.2186   95.0759 O   0  0  0  0  0  0  0  0  0  0  0  0
   50.8252  -17.6664   94.4207 C   0  0  1  0  0  0  0  0  0  0  0  0
   51.3835  -17.0469   93.1304 C   0  0  0  0  0  0  0  0  0  0  0  0
   52.2521  -17.8940   92.4875 O   0  0  0  0  0  0  0  0  0  0  0  0
   50.6793  -18.9970   94.2083 O   0  0  0  0  0  0  0  0  0  0  0  0
   51.1285  -19.8514   95.1472 C   0  0  1  0  0  0  0  0  0  0  0  0
   52.4727  -20.1431   94.9164 O   0  0  0  0  0  0  0  0  0  0  0  0
  1  2  1  0
  2  3  2  0
  2  4  1  0
  5  4  1  6
  5  6  1  0
  6  7  1  6
  6  8  1  0
  8  9  1  6
  8 10  1  0
 10 11  1  6
 11 12  1  0
 10 13  1  0
 13 14  1  0
 14 15  1  6
 14  5  1  0
M  END
$$$$
