
     RDKit          3D

 15 15  0  0  0  0  0  0  0  0999 V2000
   35.4423    0.1040   91.1243 C   0  0  0  0  0  0  0  0  0  0  0  0
   36.3001    0.9380   90.2444 C   0  0  0  0  0  0  0  0  0  0  0  0
   37.5198    0.6745   90.0835 O   0  0  0  0  0  0  0  0  0  0  0  0
   35.8170    2.0700   89.5352 N   0  0  0  0  0  0  0  0  0  0  0  0
   36.6662    2.9735   88.8408 C   0  0  2  0  0  0  0  0  0  0  0  0
   36.6670    4.3386   89.5214 C   0  0  1  0  0  0  0  0  0  0  0  0
   37.9841    4.8111   89.6923 O   0  0  0  0  0  0  0  0  0  0  0  0
   35.9315    5.3755   88.7513 C   0  0  1  0  0  0  0  0  0  0  0  0
   36.8207    6.2603   88.0986 O   0  0  0  0  0  0  0  0  0  0  0  0
   34.9352    4.8762   87.7813 C   0  0  1  0  0  0  0  0  0  0  0  0
   34.6083    6.0284   86.8191 C   0  0  0  0  0  0  0  0  0  0  0  0
   35.2165    5.8671   85.5987 O   0  0  0  0  0  0  0  0  0  0  0  0
   35.2874    3.8026   87.0327 O   0  0  0  0  0  0  0  0  0  0  0  0
   36.3899    3.1111   87.3784 C   0  0  1  0  0  0  0  0  0  0  0  0
   37.5118    3.6768   86.7730 O   0  0  0  0  0  0  0  0  0  0  0  0
  1  2  1  0
  2  3  2  0
  2  4  1  0
  5  4  1  1
  5  6  1  0
  6  7  1  6
  6  8  1  0
  8  9  1  6
  8 10  1  0
 10 11  1  6
 11 12  1  0
 10 13  1  0
 13 14  1  0
 14 15  1  6
 14  5  1  0
M  END
$$$$
