
     RDKit          3D

 15 15  0  0  0  0  0  0  0  0999 V2000
   35.4560   -0.4208   90.5768 C   0  0  0  0  0  0  0  0  0  0  0  0
   36.3512    0.5336   89.8745 C   0  0  0  0  0  0  0  0  0  0  0  0
   37.5844    0.3104   89.7645 O   0  0  0  0  0  0  0  0  0  0  0  0
   35.8906    1.7427   89.2879 N   0  0  0  0  0  0  0  0  0  0  0  0
   36.7626    2.7294   88.7533 C   0  0  2  0  0  0  0  0  0  0  0  0
   36.7143    4.0001   89.5957 C   0  0  1  0  0  0  0  0  0  0  0  0
   38.0159    4.4550   89.8893 O   0  0  0  0  0  0  0  0  0  0  0  0
   36.0058    5.1201   88.9229 C   0  0  1  0  0  0  0  0  0  0  0  0
   36.9158    6.0834   88.4293 O   0  0  0  0  0  0  0  0  0  0  0  0
   35.0642    4.7390   87.8501 C   0  0  1  0  0  0  0  0  0  0  0  0
   34.7718    5.9993   87.0216 C   0  0  0  0  0  0  0  0  0  0  0  0
   35.6810    6.1696   86.0068 O   0  0  0  0  0  0  0  0  0  0  0  0
   35.4650    3.7678   86.9939 O   0  0  0  0  0  0  0  0  0  0  0  0
   36.5570    3.0448   87.3069 C   0  0  1  0  0  0  0  0  0  0  0  0
   37.7008    3.6867   86.8327 O   0  0  0  0  0  0  0  0  0  0  0  0
  1  2  1  0
  2  3  2  0
  2  4  1  0
  5  4  1  1
  5  6  1  0
  6  7  1  6
  6  8  1  0
  8  9  1  6
  8 10  1  0
 10 11  1  6
 11 12  1  0
 10 13  1  0
 13 14  1  0
 14 15  1  1
 14  5  1  0
M  END
$$$$
