
     RDKit          3D

 15 15  0  0  0  0  0  0  0  0999 V2000
   24.4655   28.8293   84.3071 C   0  0  0  0  0  0  0  0  0  0  0  0
   24.7207   27.3676   84.3688 C   0  0  0  0  0  0  0  0  0  0  0  0
   24.2229   26.6568   85.2798 O   0  0  0  0  0  0  0  0  0  0  0  0
   25.5282   26.6794   83.4242 N   0  0  0  0  0  0  0  0  0  0  0  0
   25.8535   25.3006   83.5370 C   0  0  2  0  0  0  0  0  0  0  0  0
   27.3211   25.1254   83.9137 C   0  0  1  0  0  0  0  0  0  0  0  0
   27.4585   24.2099   84.9769 O   0  0  0  0  0  0  0  0  0  0  0  0
   28.1548   24.6161   82.7936 C   0  0  1  0  0  0  0  0  0  0  0  0
   28.4682   23.2479   82.9649 O   0  0  0  0  0  0  0  0  0  0  0  0
   27.6143   24.8298   81.4353 C   0  0  1  0  0  0  0  0  0  0  0  0
   28.3722   23.8925   80.4827 C   0  0  0  0  0  0  0  0  0  0  0  0
   27.8414   22.6262   80.4776 O   0  0  0  0  0  0  0  0  0  0  0  0
   26.2883   24.6121   81.2577 O   0  0  0  0  0  0  0  0  0  0  0  0
   25.5091   24.4655   82.3462 C   0  0  1  0  0  0  0  0  0  0  0  0
   25.4943   23.1277   82.7402 O   0  0  0  0  0  0  0  0  0  0  0  0
  1  2  1  0
  2  3  2  0
  2  4  1  0
  5  4  1  6
  5  6  1  0
  6  7  1  1
  6  8  1  0
  8  9  1  1
  8 10  1  0
 10 11  1  6
 11 12  1  0
 10 13  1  0
 13 14  1  0
 14 15  1  1
 14  5  1  0
M  END
$$$$
