
     RDKit          3D

 15 15  0  0  0  0  0  0  0  0999 V2000
   35.4197   -0.4581   90.6249 C   0  0  0  0  0  0  0  0  0  0  0  0
   36.3028    0.4913   89.9006 C   0  0  0  0  0  0  0  0  0  0  0  0
   37.5252    0.2456   89.7324 O   0  0  0  0  0  0  0  0  0  0  0  0
   35.8421    1.7198   89.3563 N   0  0  0  0  0  0  0  0  0  0  0  0
   36.7092    2.6947   88.7928 C   0  0  2  0  0  0  0  0  0  0  0  0
   36.7144    3.9618   89.6418 C   0  0  1  0  0  0  0  0  0  0  0  0
   38.0337    4.3938   89.8871 O   0  0  0  0  0  0  0  0  0  0  0  0
   35.9993    5.0967   89.0016 C   0  0  1  0  0  0  0  0  0  0  0  0
   36.9056    6.0473   88.4775 O   0  0  0  0  0  0  0  0  0  0  0  0
   35.0109    4.7364   87.9642 C   0  0  1  0  0  0  0  0  0  0  0  0
   34.7079    6.0054   87.1531 C   0  0  0  0  0  0  0  0  0  0  0  0
   35.5733    6.1600   86.0983 O   0  0  0  0  0  0  0  0  0  0  0  0
   35.3623    3.7630   87.0891 O   0  0  0  0  0  0  0  0  0  0  0  0
   36.4534    3.0205   87.3567 C   0  0  1  0  0  0  0  0  0  0  0  0
   37.5887    3.6459   86.8416 O   0  0  0  0  0  0  0  0  0  0  0  0
  1  2  1  0
  2  3  2  0
  2  4  1  0
  5  4  1  1
  5  6  1  0
  6  7  1  6
  6  8  1  0
  8  9  1  6
  8 10  1  0
 10 11  1  6
 11 12  1  0
 10 13  1  0
 13 14  1  0
 14 15  1  1
 14  5  1  0
M  END
$$$$
