
     RDKit          3D

 15 15  0  0  0  0  0  0  0  0999 V2000
   35.2428   -0.1718   90.7439 C   0  0  0  0  0  0  0  0  0  0  0  0
   36.1494    0.7065   89.9613 C   0  0  0  0  0  0  0  0  0  0  0  0
   37.3668    0.4238   89.8174 O   0  0  0  0  0  0  0  0  0  0  0  0
   35.7177    1.9042   89.3313 N   0  0  0  0  0  0  0  0  0  0  0  0
   36.6077    2.8172   88.7034 C   0  0  2  0  0  0  0  0  0  0  0  0
   36.6402    4.1406   89.4611 C   0  0  1  0  0  0  0  0  0  0  0  0
   37.9686    4.5590   89.6797 O   0  0  0  0  0  0  0  0  0  0  0  0
   35.9521    5.2433   88.7402 C   0  0  1  0  0  0  0  0  0  0  0  0
   36.8806    6.1339   88.1534 O   0  0  0  0  0  0  0  0  0  0  0  0
   34.9576    4.8331   87.7274 C   0  0  1  0  0  0  0  0  0  0  0  0
   34.6849    6.0483   86.8279 C   0  0  0  0  0  0  0  0  0  0  0  0
   35.3339    5.9509   85.6217 O   0  0  0  0  0  0  0  0  0  0  0  0
   35.2883    3.7927   86.9242 O   0  0  0  0  0  0  0  0  0  0  0  0
   36.3618    3.0467   87.2471 C   0  0  1  0  0  0  0  0  0  0  0  0
   37.5119    3.6085   86.6930 O   0  0  0  0  0  0  0  0  0  0  0  0
  1  2  1  0
  2  3  2  0
  2  4  1  0
  5  4  1  1
  5  6  1  0
  6  7  1  6
  6  8  1  0
  8  9  1  6
  8 10  1  0
 10 11  1  6
 11 12  1  0
 10 13  1  0
 13 14  1  0
 14 15  1  1
 14  5  1  0
M  END
$$$$
