
     RDKit          3D

 15 15  0  0  0  0  0  0  0  0999 V2000
   35.4489   -0.5222   90.5838 C   0  0  0  0  0  0  0  0  0  0  0  0
   36.3178    0.4420   89.8620 C   0  0  0  0  0  0  0  0  0  0  0  0
   37.5389    0.2047   89.6738 O   0  0  0  0  0  0  0  0  0  0  0  0
   35.8442    1.6763   89.3424 N   0  0  0  0  0  0  0  0  0  0  0  0
   36.7024    2.6786   88.8147 C   0  0  2  0  0  0  0  0  0  0  0  0
   36.6726    3.9259   89.6923 C   0  0  1  0  0  0  0  0  0  0  0  0
   37.9802    4.3747   89.9677 O   0  0  0  0  0  0  0  0  0  0  0  0
   35.9474    5.0626   89.0670 C   0  0  1  0  0  0  0  0  0  0  0  0
   36.8447    6.0404   88.5787 O   0  0  0  0  0  0  0  0  0  0  0  0
   34.9813    4.7093   88.0065 C   0  0  1  0  0  0  0  0  0  0  0  0
   34.6684    5.9912   87.2197 C   0  0  0  0  0  0  0  0  0  0  0  0
   35.5279    6.1689   86.1638 O   0  0  0  0  0  0  0  0  0  0  0  0
   35.3629    3.7624   87.1150 O   0  0  0  0  0  0  0  0  0  0  0  0
   36.4627    3.0329   87.3826 C   0  0  1  0  0  0  0  0  0  0  0  0
   37.5945    3.6894   86.8995 O   0  0  0  0  0  0  0  0  0  0  0  0
  1  2  1  0
  2  3  2  0
  2  4  1  0
  5  4  1  1
  5  6  1  0
  6  7  1  6
  6  8  1  0
  8  9  1  6
  8 10  1  0
 10 11  1  6
 11 12  1  0
 10 13  1  0
 13 14  1  0
 14 15  1  1
 14  5  1  0
M  END
$$$$
