
     RDKit          3D

 15 15  0  0  0  0  0  0  0  0999 V2000
   35.4891   -0.5132   90.4559 C   0  0  0  0  0  0  0  0  0  0  0  0
   36.3740    0.4647   89.7730 C   0  0  0  0  0  0  0  0  0  0  0  0
   37.6054    0.2455   89.6373 O   0  0  0  0  0  0  0  0  0  0  0  0
   35.9051    1.6926   89.2345 N   0  0  0  0  0  0  0  0  0  0  0  0
   36.7678    2.6868   88.6986 C   0  0  2  0  0  0  0  0  0  0  0  0
   36.7246    3.9503   89.5520 C   0  0  1  0  0  0  0  0  0  0  0  0
   38.0279    4.4072   89.8350 O   0  0  0  0  0  0  0  0  0  0  0  0
   36.0049    5.0734   88.8965 C   0  0  1  0  0  0  0  0  0  0  0  0
   36.9062    6.0439   88.4010 O   0  0  0  0  0  0  0  0  0  0  0  0
   35.0527    4.6980   87.8310 C   0  0  1  0  0  0  0  0  0  0  0  0
   34.7469    5.9642   87.0164 C   0  0  0  0  0  0  0  0  0  0  0  0
   35.6322    6.1354   85.9809 O   0  0  0  0  0  0  0  0  0  0  0  0
   35.4472    3.7354   86.9623 O   0  0  0  0  0  0  0  0  0  0  0  0
   36.5451    3.0135   87.2572 C   0  0  1  0  0  0  0  0  0  0  0  0
   37.6814    3.6634   86.7758 O   0  0  0  0  0  0  0  0  0  0  0  0
  1  2  1  0
  2  3  2  0
  2  4  1  0
  5  4  1  1
  5  6  1  0
  6  7  1  6
  6  8  1  0
  8  9  1  6
  8 10  1  0
 10 11  1  6
 11 12  1  0
 10 13  1  0
 13 14  1  0
 14 15  1  1
 14  5  1  0
M  END
$$$$
