
     RDKit          3D

 15 15  0  0  0  0  0  0  0  0999 V2000
   35.4767   -0.2416   90.6923 C   0  0  0  0  0  0  0  0  0  0  0  0
   36.3601    0.6783   89.9313 C   0  0  0  0  0  0  0  0  0  0  0  0
   37.5952    0.4609   89.8301 O   0  0  0  0  0  0  0  0  0  0  0  0
   35.8857    1.8459   89.2759 N   0  0  0  0  0  0  0  0  0  0  0  0
   36.7440    2.7878   88.6469 C   0  0  2  0  0  0  0  0  0  0  0  0
   36.7196    4.1174   89.3941 C   0  0  1  0  0  0  0  0  0  0  0  0
   38.0291    4.5888   89.6184 O   0  0  0  0  0  0  0  0  0  0  0  0
   35.9944    5.1869   88.6597 C   0  0  1  0  0  0  0  0  0  0  0  0
   36.8918    6.1083   88.0722 O   0  0  0  0  0  0  0  0  0  0  0  0
   35.0238    4.7305   87.6435 C   0  0  1  0  0  0  0  0  0  0  0  0
   34.7105    5.9271   86.7324 C   0  0  0  0  0  0  0  0  0  0  0  0
   35.6489    6.0781   85.7415 O   0  0  0  0  0  0  0  0  0  0  0  0
   35.4005    3.6976   86.8509 O   0  0  0  0  0  0  0  0  0  0  0  0
   36.4998    2.9963   87.1871 C   0  0  1  0  0  0  0  0  0  0  0  0
   37.6311    3.5981   86.6364 O   0  0  0  0  0  0  0  0  0  0  0  0
  1  2  1  0
  2  3  2  0
  2  4  1  0
  5  4  1  1
  5  6  1  0
  6  7  1  6
  6  8  1  0
  8  9  1  6
  8 10  1  0
 10 11  1  6
 11 12  1  0
 10 13  1  0
 13 14  1  0
 14 15  1  1
 14  5  1  0
M  END
$$$$
