
     RDKit          3D

 15 15  0  0  0  0  0  0  0  0999 V2000
   51.5127   20.3240   72.0094 C   0  0  0  0  0  0  0  0  0  0  0  0
   50.1864   20.5680   72.6315 C   0  0  0  0  0  0  0  0  0  0  0  0
   49.6524   21.7068   72.6027 O   0  0  0  0  0  0  0  0  0  0  0  0
   49.4395   19.5553   73.2906 N   0  0  0  0  0  0  0  0  0  0  0  0
   48.1831   19.7943   73.9104 C   0  0  2  0  0  0  0  0  0  0  0  0
   48.2962   19.6483   75.4246 C   0  0  1  0  0  0  0  0  0  0  0  0
   47.6910   20.7406   76.0787 O   0  0  0  0  0  0  0  0  0  0  0  0
   47.6437   18.4176   75.9430 C   0  0  1  0  0  0  0  0  0  0  0  0
   46.4102   18.7125   76.5683 O   0  0  0  0  0  0  0  0  0  0  0  0
   47.4504   17.3266   74.9656 C   0  0  1  0  0  0  0  0  0  0  0  0
   46.4170   16.3547   75.5552 C   0  0  0  0  0  0  0  0  0  0  0  0
   45.1394   16.6567   75.1530 O   0  0  0  0  0  0  0  0  0  0  0  0
   47.0261   17.6764   73.7268 O   0  0  0  0  0  0  0  0  0  0  0  0
   47.0473   18.9782   73.3832 C   0  0  1  0  0  0  0  0  0  0  0  0
   45.8543   19.5886   73.7696 O   0  0  0  0  0  0  0  0  0  0  0  0
  1  2  1  0
  2  3  2  0
  2  4  1  0
  5  4  1  6
  5  6  1  0
  6  7  1  1
  6  8  1  0
  8  9  1  6
  8 10  1  0
 10 11  1  1
 11 12  1  0
 10 13  1  0
 13 14  1  0
 14 15  1  1
 14  5  1  0
M  END
$$$$
