5S8I_2LY_A_1501
     RDKit          3D

 13 14  0  0  0  0  0  0  0  0999 V2000
  -18.7281   14.4982   23.3747 C   0  0  0  0  0  0  0  0  0  0  0  0
  -19.1689   14.8424   24.7116 N   0  0  0  0  0  0  0  0  0  0  0  0
  -19.4750   13.8945   25.7073 C   0  0  0  0  0  0  0  0  0  0  0  0
  -19.8102   14.2799   27.0789 C   0  0  0  0  0  0  0  0  0  0  0  0
  -20.1119   15.4832   27.6302 C   0  0  0  0  0  0  0  0  0  0  0  0
  -20.3798   15.5333   28.9405 C   0  0  0  0  0  0  0  0  0  0  0  0
  -20.3317   14.3606   29.6423 C   0  0  0  0  0  0  0  0  0  0  0  0
  -19.9130   13.2245   28.4468 S   0  0  0  0  0  0  0  0  0  0  0  0
  -20.6949   16.7918   29.5184 O   0  0  0  0  0  0  0  0  0  0  0  0
  -21.1801   17.8798   28.7962 C   0  0  0  0  0  0  0  0  0  0  0  0
  -21.1425   17.7051   27.3064 C   0  0  0  0  0  0  0  0  0  0  0  0
  -20.1773   16.7320   26.9531 O   0  0  0  0  0  0  0  0  0  0  0  0
  -19.4659   12.6726   25.4312 O   0  0  0  0  0  0  0  0  0  0  0  0
  1  2  1  0
  2  3  1  0
  3  4  1  0
  4  5  2  0
  5  6  1  0
  6  7  2  0
  7  8  1  0
  4  8  1  0
  6  9  1  0
  9 10  1  0
 10 11  1  0
  5 12  1  0
 11 12  1  0
  3 13  2  0
M  END
$$$$
