5S8I_2LY_A_1501
     RDKit          3D

 13 14  0  0  0  0  0  0  0  0999 V2000
  -17.5988   12.0529   23.4360 C   0  0  0  0  0  0  0  0  0  0  0  0
  -18.1991   13.1663   24.1429 N   0  0  0  0  0  0  0  0  0  0  0  0
  -19.0010   13.0277   25.2925 C   0  0  0  0  0  0  0  0  0  0  0  0
  -19.5454   14.1806   26.0113 C   0  0  0  0  0  0  0  0  0  0  0  0
  -20.2692   14.2709   27.1563 C   0  0  0  0  0  0  0  0  0  0  0  0
  -20.6373   15.4851   27.5821 C   0  0  0  0  0  0  0  0  0  0  0  0
  -20.2570   16.5623   26.8303 C   0  0  0  0  0  0  0  0  0  0  0  0
  -19.3964   15.8424   25.5510 S   0  0  0  0  0  0  0  0  0  0  0  0
  -21.3951   15.5806   28.7794 O   0  0  0  0  0  0  0  0  0  0  0  0
  -21.4116   14.6009   29.7698 C   0  0  0  0  0  0  0  0  0  0  0  0
  -20.7368   13.3167   29.3867 C   0  0  0  0  0  0  0  0  0  0  0  0
  -20.6924   13.1899   27.9776 O   0  0  0  0  0  0  0  0  0  0  0  0
  -19.2704   11.8864   25.7330 O   0  0  0  0  0  0  0  0  0  0  0  0
  1  2  1  0
  2  3  1  0
  3  4  1  0
  4  5  2  0
  5  6  1  0
  6  7  2  0
  7  8  1  0
  4  8  1  0
  6  9  1  0
  9 10  1  0
 10 11  1  0
  5 12  1  0
 11 12  1  0
  3 13  2  0
M  END
$$$$
