5S8I_2LY_A_1501
     RDKit          3D

 13 14  0  0  0  0  0  0  0  0999 V2000
  -17.5251   10.3146   25.5147 C   0  0  0  0  0  0  0  0  0  0  0  0
  -18.1931   11.5376   25.9123 N   0  0  0  0  0  0  0  0  0  0  0  0
  -18.7414   12.4650   25.0051 C   0  0  0  0  0  0  0  0  0  0  0  0
  -19.2829   13.7550   25.4352 C   0  0  0  0  0  0  0  0  0  0  0  0
  -19.7312   14.1889   26.6410 C   0  0  0  0  0  0  0  0  0  0  0  0
  -20.1798   15.4460   26.7379 C   0  0  0  0  0  0  0  0  0  0  0  0
  -20.1567   16.2159   25.6079 C   0  0  0  0  0  0  0  0  0  0  0  0
  -19.5079   15.1566   24.4450 S   0  0  0  0  0  0  0  0  0  0  0  0
  -20.6496   15.9007   27.9987 O   0  0  0  0  0  0  0  0  0  0  0  0
  -20.2844   15.3313   29.2165 C   0  0  0  0  0  0  0  0  0  0  0  0
  -19.5203   14.0453   29.0983 C   0  0  0  0  0  0  0  0  0  0  0  0
  -19.7791   13.4367   27.8469 O   0  0  0  0  0  0  0  0  0  0  0  0
  -18.7772   12.1969   23.7820 O   0  0  0  0  0  0  0  0  0  0  0  0
  1  2  1  0
  2  3  1  0
  3  4  1  0
  4  5  2  0
  5  6  1  0
  6  7  2  0
  7  8  1  0
  4  8  1  0
  6  9  1  0
  9 10  1  0
 10 11  1  0
  5 12  1  0
 11 12  1  0
  3 13  2  0
M  END
$$$$
