5S8I_2LY_A_1501
     RDKit          3D

 13 14  0  0  0  0  0  0  0  0999 V2000
  -18.0810   14.4150   24.2674 C   0  0  0  0  0  0  0  0  0  0  0  0
  -18.8184   14.7287   25.4747 N   0  0  0  0  0  0  0  0  0  0  0  0
  -19.7845   13.8799   26.0493 C   0  0  0  0  0  0  0  0  0  0  0  0
  -20.4903   14.2204   27.2854 C   0  0  0  0  0  0  0  0  0  0  0  0
  -20.1340   14.9901   28.3455 C   0  0  0  0  0  0  0  0  0  0  0  0
  -21.0016   15.1218   29.3559 C   0  0  0  0  0  0  0  0  0  0  0  0
  -22.1983   14.4679   29.2529 C   0  0  0  0  0  0  0  0  0  0  0  0
  -22.0720   13.6891   27.7454 S   0  0  0  0  0  0  0  0  0  0  0  0
  -20.6297   15.9262   30.4657 O   0  0  0  0  0  0  0  0  0  0  0  0
  -19.6630   16.9279   30.4112 C   0  0  0  0  0  0  0  0  0  0  0  0
  -18.8692   16.9587   29.1383 C   0  0  0  0  0  0  0  0  0  0  0  0
  -18.9080   15.6920   28.5079 O   0  0  0  0  0  0  0  0  0  0  0  0
  -20.0653   12.7899   25.4994 O   0  0  0  0  0  0  0  0  0  0  0  0
  1  2  1  0
  2  3  1  0
  3  4  1  0
  4  5  2  0
  5  6  1  0
  6  7  2  0
  7  8  1  0
  4  8  1  0
  6  9  1  0
  9 10  1  0
 10 11  1  0
  5 12  1  0
 11 12  1  0
  3 13  2  0
M  END
$$$$
