5S8I_2LY_A_1501
     RDKit          3D

 13 14  0  0  0  0  0  0  0  0999 V2000
  -18.6280   14.3731   23.5115 C   0  0  0  0  0  0  0  0  0  0  0  0
  -19.1266   14.7485   24.8193 N   0  0  0  0  0  0  0  0  0  0  0  0
  -19.4997   13.8238   25.8140 C   0  0  0  0  0  0  0  0  0  0  0  0
  -19.9217   14.2406   27.1521 C   0  0  0  0  0  0  0  0  0  0  0  0
  -20.0576   15.4690   27.7138 C   0  0  0  0  0  0  0  0  0  0  0  0
  -20.4693   15.5450   28.9850 C   0  0  0  0  0  0  0  0  0  0  0  0
  -20.7278   14.3719   29.6385 C   0  0  0  0  0  0  0  0  0  0  0  0
  -20.3866   13.1991   28.4539 S   0  0  0  0  0  0  0  0  0  0  0  0
  -20.6112   16.8296   29.5739 O   0  0  0  0  0  0  0  0  0  0  0  0
  -20.7922   18.0034   28.8458 C   0  0  0  0  0  0  0  0  0  0  0  0
  -20.6064   17.8524   27.3646 C   0  0  0  0  0  0  0  0  0  0  0  0
  -19.8047   16.7197   27.0860 O   0  0  0  0  0  0  0  0  0  0  0  0
  -19.4769   12.5961   25.5664 O   0  0  0  0  0  0  0  0  0  0  0  0
  1  2  1  0
  2  3  1  0
  3  4  1  0
  4  5  2  0
  5  6  1  0
  6  7  2  0
  7  8  1  0
  4  8  1  0
  6  9  1  0
  9 10  1  0
 10 11  1  0
  5 12  1  0
 11 12  1  0
  3 13  2  0
M  END
$$$$
