5S8I_2LY_A_1501
     RDKit          3D

 13 14  0  0  0  0  0  0  0  0999 V2000
  -18.2058   14.3107   23.9979 C   0  0  0  0  0  0  0  0  0  0  0  0
  -18.8598   14.6326   25.2505 N   0  0  0  0  0  0  0  0  0  0  0  0
  -19.7958   13.7945   25.8871 C   0  0  0  0  0  0  0  0  0  0  0  0
  -20.4230   14.1471   27.1616 C   0  0  0  0  0  0  0  0  0  0  0  0
  -20.0588   15.0194   28.1361 C   0  0  0  0  0  0  0  0  0  0  0  0
  -20.8440   15.1332   29.2138 C   0  0  0  0  0  0  0  0  0  0  0  0
  -21.9695   14.3579   29.2624 C   0  0  0  0  0  0  0  0  0  0  0  0
  -21.8938   13.4938   27.7986 S   0  0  0  0  0  0  0  0  0  0  0  0
  -20.4635   16.0449   30.2341 O   0  0  0  0  0  0  0  0  0  0  0  0
  -19.6163   17.1317   30.0299 C   0  0  0  0  0  0  0  0  0  0  0  0
  -18.9442   17.1539   28.6885 C   0  0  0  0  0  0  0  0  0  0  0  0
  -18.9041   15.8493   28.1409 O   0  0  0  0  0  0  0  0  0  0  0  0
  -20.1175   12.7039   25.3615 O   0  0  0  0  0  0  0  0  0  0  0  0
  1  2  1  0
  2  3  1  0
  3  4  1  0
  4  5  2  0
  5  6  1  0
  6  7  2  0
  7  8  1  0
  4  8  1  0
  6  9  1  0
  9 10  1  0
 10 11  1  0
  5 12  1  0
 11 12  1  0
  3 13  2  0
M  END
$$$$
