5S8I_2LY_A_1501
     RDKit          3D

 13 14  0  0  0  0  0  0  0  0999 V2000
  -17.6664   10.2314   25.6266 C   0  0  0  0  0  0  0  0  0  0  0  0
  -18.2250   11.5105   26.0164 N   0  0  0  0  0  0  0  0  0  0  0  0
  -18.6455   12.4964   25.1027 C   0  0  0  0  0  0  0  0  0  0  0  0
  -19.2059   13.7774   25.5356 C   0  0  0  0  0  0  0  0  0  0  0  0
  -19.7513   14.1716   26.7146 C   0  0  0  0  0  0  0  0  0  0  0  0
  -20.1909   15.4310   26.8224 C   0  0  0  0  0  0  0  0  0  0  0  0
  -20.0604   16.2434   25.7300 C   0  0  0  0  0  0  0  0  0  0  0  0
  -19.3268   15.2194   24.5862 S   0  0  0  0  0  0  0  0  0  0  0  0
  -20.7623   15.8444   28.0552 O   0  0  0  0  0  0  0  0  0  0  0  0
  -20.5110   15.2227   29.2763 C   0  0  0  0  0  0  0  0  0  0  0  0
  -19.7558   13.9303   29.1733 C   0  0  0  0  0  0  0  0  0  0  0  0
  -19.9129   13.3745   27.8811 O   0  0  0  0  0  0  0  0  0  0  0  0
  -18.5453   12.2908   23.8711 O   0  0  0  0  0  0  0  0  0  0  0  0
  1  2  1  0
  2  3  1  0
  3  4  1  0
  4  5  2  0
  5  6  1  0
  6  7  2  0
  7  8  1  0
  4  8  1  0
  6  9  1  0
  9 10  1  0
 10 11  1  0
  5 12  1  0
 11 12  1  0
  3 13  2  0
M  END
$$$$
