5S8I_2LY_A_1501
     RDKit          3D

 13 14  0  0  0  0  0  0  0  0999 V2000
  -18.1377   14.3516   24.1504 C   0  0  0  0  0  0  0  0  0  0  0  0
  -18.8667   14.6826   25.3582 N   0  0  0  0  0  0  0  0  0  0  0  0
  -19.7293   13.7913   26.0256 C   0  0  0  0  0  0  0  0  0  0  0  0
  -20.3931   14.1378   27.2832 C   0  0  0  0  0  0  0  0  0  0  0  0
  -20.0989   15.0602   28.2348 C   0  0  0  0  0  0  0  0  0  0  0  0
  -20.9022   15.1522   29.3013 C   0  0  0  0  0  0  0  0  0  0  0  0
  -21.9740   14.3050   29.3622 C   0  0  0  0  0  0  0  0  0  0  0  0
  -21.8241   13.4060   27.9253 S   0  0  0  0  0  0  0  0  0  0  0  0
  -20.5950   16.1164   30.2977 O   0  0  0  0  0  0  0  0  0  0  0  0
  -19.8199   17.2512   30.0694 C   0  0  0  0  0  0  0  0  0  0  0  0
  -19.1355   17.2796   28.7344 C   0  0  0  0  0  0  0  0  0  0  0  0
  -19.0023   15.9654   28.2259 O   0  0  0  0  0  0  0  0  0  0  0  0
  -19.9505   12.6565   25.5434 O   0  0  0  0  0  0  0  0  0  0  0  0
  1  2  1  0
  2  3  1  0
  3  4  1  0
  4  5  2  0
  5  6  1  0
  6  7  2  0
  7  8  1  0
  4  8  1  0
  6  9  1  0
  9 10  1  0
 10 11  1  0
  5 12  1  0
 11 12  1  0
  3 13  2  0
M  END
$$$$
