
     RDKit          3D

 49 56  0  0  0  0  0  0  0  0999 V2000
  -12.1485  -14.7647   23.8288 C   0  0  0  0  0  0  0  0  0  0  0  0
  -12.4072  -14.7345   22.3614 C   0  0  0  0  0  0  0  0  0  0  0  0
  -11.6911  -13.6960   21.6916 C   0  0  0  0  0  0  0  0  0  0  0  0
  -10.8593  -12.8528   22.1243 C   0  0  0  0  0  0  0  0  0  0  0  0
  -10.0875  -12.0843   22.5096 C   0  0  0  0  0  0  0  0  0  0  0  0
   -8.9793  -11.0202   23.0603 C   0  0  0  0  0  0  0  0  0  0  0  0
   -7.9571  -10.5493   22.4817 C   0  0  0  0  0  0  0  0  0  0  0  0
   -7.2570   -9.5335   23.0380 C   0  0  0  0  0  0  0  0  0  0  0  0
   -7.5522   -8.9023   24.2229 C   0  0  0  0  0  0  0  0  0  0  0  0
   -6.7560   -7.7694   24.6557 C   0  0  0  0  0  0  0  0  0  0  0  0
   -5.8930   -7.2149   23.6201 N   0  0  0  0  0  0  0  0  0  0  0  0
   -5.3225   -8.0983   22.6708 C   0  0  0  0  0  0  0  0  0  0  0  0
   -3.8007   -8.3045   22.8415 C   0  0  0  0  0  0  0  0  0  0  0  0
   -3.5110   -8.5908   24.2615 C   0  0  0  0  0  0  0  0  0  0  0  0
   -2.0256   -8.8887   24.4676 C   0  0  0  0  0  0  0  0  0  0  0  0
   -1.3226   -8.9984   23.3089 O   0  0  0  0  0  0  0  0  0  0  0  0
   -3.8609   -7.3147   25.0262 C   0  0  0  0  0  0  0  0  0  0  0  0
   -4.8408   -6.4231   24.2706 C   0  0  0  0  0  0  0  0  0  0  0  0
   -8.6861   -9.4274   24.8777 C   0  0  0  0  0  0  0  0  0  0  0  0
   -9.4475  -10.4963   24.3421 C   0  0  0  0  0  0  0  0  0  0  0  0
  -12.1336  -13.6523   20.2952 C   0  0  0  0  0  0  0  0  0  0  0  0
  -13.0203  -14.3726   19.6358 C   0  0  0  0  0  0  0  0  0  0  0  0
  -13.4644  -14.2655   18.2379 C   0  0  0  0  0  0  0  0  0  0  0  0
  -14.8464  -14.0277   18.1347 F   0  0  0  0  0  0  0  0  0  0  0  0
  -12.8532  -13.1986   17.5429 F   0  0  0  0  0  0  0  0  0  0  0  0
  -13.7132  -15.4077   20.4203 C   0  0  0  0  0  0  0  0  0  0  0  0
  -14.6698  -16.3057   20.1789 C   0  0  0  0  0  0  0  0  0  0  0  0
  -14.8767  -16.9699   21.3541 N   0  0  0  0  0  0  0  0  0  0  0  0
  -15.7681  -18.0160   21.7096 C   0  0  1  0  0  0  0  0  0  0  0  0
  -16.9281  -17.6916   22.6120 C   0  0  0  0  0  0  0  0  0  0  0  0
  -17.2149  -16.4990   22.9343 O   0  0  0  0  0  0  0  0  0  0  0  0
  -17.6921  -18.7550   23.0600 N   0  0  0  0  0  0  0  0  0  0  0  0
  -18.7896  -18.9405   23.8625 C   0  0  0  0  0  0  0  0  0  0  0  0
  -19.4341  -20.3889   24.0839 N   0  0  0  0  0  0  0  0  0  0  0  0
  -20.3657  -20.2167   24.9457 C   0  0  0  0  0  0  0  0  0  0  0  0
  -20.7617  -19.0210   25.5703 C   0  0  0  0  0  0  0  0  0  0  0  0
  -19.6962  -18.0593   24.8623 S   0  0  0  0  0  0  0  0  0  0  0  0
  -16.2511  -18.5506   20.3587 C   0  0  0  0  0  0  0  0  0  0  0  0
  -17.4815  -18.0832   19.9124 N   0  0  0  0  0  0  0  0  0  0  0  0
  -17.6751  -18.5487   18.6898 C   0  0  0  0  0  0  0  0  0  0  0  0
  -16.6458  -19.2692   18.3073 N   0  0  0  0  0  0  0  0  0  0  0  0
  -15.7440  -19.2859   19.3750 C   0  0  0  0  0  0  0  0  0  0  0  0
  -14.6894  -20.3164   19.0739 C   0  0  0  0  0  0  0  0  0  0  0  0
  -15.4359  -21.1437   17.9857 C   0  0  0  0  0  0  0  0  0  0  0  0
  -15.9887  -19.9331   17.2378 C   0  0  0  0  0  0  0  0  0  0  0  0
  -15.0436  -19.2030   16.3255 C   0  0  0  0  0  0  0  0  0  0  0  0
  -16.2936  -19.9517   15.8157 C   0  0  0  0  0  0  0  0  0  0  0  0
  -14.0454  -16.4527   22.2679 N   0  0  0  0  0  0  0  0  0  0  0  0
  -13.2915  -15.4421   21.6779 C   0  0  0  0  0  0  0  0  0  0  0  0
  1  2  1  0
  2  3  2  0
  3  4  1  0
  4  5  3  0
  5  6  1  0
  6  7  2  0
  7  8  1  0
  8  9  2  0
  9 10  1  0
 10 11  1  0
 11 12  1  0
 12 13  1  0
 13 14  1  0
 14 15  1  0
 15 16  1  0
 14 17  1  0
 17 18  1  0
  9 19  1  0
 19 20  2  0
  3 21  1  0
 21 22  2  0
 22 23  1  0
 23 24  1  0
 23 25  1  0
 22 26  1  0
 26 27  2  0
 27 28  1  0
 29 28  1  6
 29 30  1  0
 30 31  2  0
 30 32  1  0
 32 33  1  0
 33 34  2  0
 34 35  1  0
 35 36  2  0
 36 37  1  0
 29 38  1  0
 38 39  1  0
 39 40  2  0
 40 41  1  0
 41 42  1  0
 42 43  1  0
 43 44  1  0
 44 45  1  0
 45 46  1  0
 46 47  1  0
 28 48  1  0
 48 49  2  0
 49  2  1  0
 20  6  1  0
 49 26  1  0
 18 11  1  0
 37 33  1  0
 42 38  2  0
 47 45  1  0
 45 41  1  0
M  END
$$$$
