
     RDKit          3D

 49 56  0  0  0  0  0  0  0  0999 V2000
  -10.8533  -14.8026   22.0767 C   0  0  0  0  0  0  0  0  0  0  0  0
  -11.8925  -14.0726   22.8565 C   0  0  0  0  0  0  0  0  0  0  0  0
  -11.4208  -12.8339   23.3888 C   0  0  0  0  0  0  0  0  0  0  0  0
  -10.3092  -12.2512   23.2672 C   0  0  0  0  0  0  0  0  0  0  0  0
   -9.2976  -11.7061   23.1482 C   0  0  0  0  0  0  0  0  0  0  0  0
   -7.8719  -10.9244   23.0060 C   0  0  0  0  0  0  0  0  0  0  0  0
   -7.0543  -10.9086   22.0403 C   0  0  0  0  0  0  0  0  0  0  0  0
   -6.0078  -10.0505   22.0372 C   0  0  0  0  0  0  0  0  0  0  0  0
   -5.7187   -9.1252   23.0118 C   0  0  0  0  0  0  0  0  0  0  0  0
   -4.6052   -8.2124   22.8334 C   0  0  0  0  0  0  0  0  0  0  0  0
   -3.9257   -8.3419   21.5504 N   0  0  0  0  0  0  0  0  0  0  0  0
   -3.5814   -9.6387   21.0956 C   0  0  0  0  0  0  0  0  0  0  0  0
   -2.0652   -9.9339   21.1318 C   0  0  0  0  0  0  0  0  0  0  0  0
   -1.5299   -9.5373   22.4502 C   0  0  0  0  0  0  0  0  0  0  0  0
   -0.0469   -9.8903   22.5674 C   0  0  0  0  0  0  0  0  0  0  0  0
    0.5193  -10.2756   21.3927 O   0  0  0  0  0  0  0  0  0  0  0  0
   -1.6743   -8.0176   22.5214 C   0  0  0  0  0  0  0  0  0  0  0  0
   -2.7367   -7.4798   21.5682 C   0  0  0  0  0  0  0  0  0  0  0  0
   -6.6215   -9.1425   24.0956 C   0  0  0  0  0  0  0  0  0  0  0  0
   -7.7272  -10.0276   24.1512 C   0  0  0  0  0  0  0  0  0  0  0  0
  -12.4582  -12.2780   24.2619 C   0  0  0  0  0  0  0  0  0  0  0  0
  -13.6545  -12.7246   24.5927 C   0  0  0  0  0  0  0  0  0  0  0  0
  -14.6504  -12.1505   25.5101 C   0  0  0  0  0  0  0  0  0  0  0  0
  -14.4215  -10.7855   25.7583 F   0  0  0  0  0  0  0  0  0  0  0  0
  -15.9690  -12.2187   25.0089 F   0  0  0  0  0  0  0  0  0  0  0  0
  -14.0402  -14.0164   24.0017 C   0  0  0  0  0  0  0  0  0  0  0  0
  -15.0983  -14.8246   24.0849 C   0  0  0  0  0  0  0  0  0  0  0  0
  -14.8250  -15.8968   23.2844 N   0  0  0  0  0  0  0  0  0  0  0  0
  -15.5647  -17.0705   22.9837 C   0  0  1  0  0  0  0  0  0  0  0  0
  -16.9977  -17.1489   23.4372 C   0  0  0  0  0  0  0  0  0  0  0  0
  -17.5087  -16.2751   24.2014 O   0  0  0  0  0  0  0  0  0  0  0  0
  -17.7500  -18.2088   22.9619 N   0  0  0  0  0  0  0  0  0  0  0  0
  -18.9403  -18.8182   23.2697 C   0  0  0  0  0  0  0  0  0  0  0  0
  -19.2755  -20.3045   22.7786 N   0  0  0  0  0  0  0  0  0  0  0  0
  -20.4048  -20.5902   23.3110 C   0  0  0  0  0  0  0  0  0  0  0  0
  -21.2017  -19.7850   24.1434 C   0  0  0  0  0  0  0  0  0  0  0  0
  -20.2400  -18.5060   24.1703 S   0  0  0  0  0  0  0  0  0  0  0  0
  -15.4601  -17.1803   21.4603 C   0  0  0  0  0  0  0  0  0  0  0  0
  -16.3374  -16.3953   20.7216 N   0  0  0  0  0  0  0  0  0  0  0  0
  -16.0223  -16.5240   19.4437 C   0  0  0  0  0  0  0  0  0  0  0  0
  -14.9891  -17.3233   19.3066 N   0  0  0  0  0  0  0  0  0  0  0  0
  -14.6389  -17.7561   20.5886 C   0  0  0  0  0  0  0  0  0  0  0  0
  -13.6426  -18.8745   20.4434 C   0  0  0  0  0  0  0  0  0  0  0  0
  -13.9111  -19.2726   18.9617 C   0  0  0  0  0  0  0  0  0  0  0  0
  -13.9906  -17.8403   18.4394 C   0  0  0  0  0  0  0  0  0  0  0  0
  -12.6904  -17.1181   18.2236 C   0  0  0  0  0  0  0  0  0  0  0  0
  -13.6543  -17.4757   17.0721 C   0  0  0  0  0  0  0  0  0  0  0  0
  -13.6131  -15.7073   22.7469 N   0  0  0  0  0  0  0  0  0  0  0  0
  -13.0956  -14.4987   23.2043 C   0  0  0  0  0  0  0  0  0  0  0  0
  1  2  1  0
  2  3  2  0
  3  4  1  0
  4  5  3  0
  5  6  1  0
  6  7  2  0
  7  8  1  0
  8  9  2  0
  9 10  1  0
 10 11  1  0
 11 12  1  0
 12 13  1  0
 13 14  1  0
 14 15  1  0
 15 16  1  0
 14 17  1  0
 17 18  1  0
  9 19  1  0
 19 20  2  0
  3 21  1  0
 21 22  2  0
 22 23  1  0
 23 24  1  0
 23 25  1  0
 22 26  1  0
 26 27  2  0
 27 28  1  0
 29 28  1  6
 29 30  1  0
 30 31  2  0
 30 32  1  0
 32 33  1  0
 33 34  2  0
 34 35  1  0
 35 36  2  0
 36 37  1  0
 29 38  1  0
 38 39  1  0
 39 40  2  0
 40 41  1  0
 41 42  1  0
 42 43  1  0
 43 44  1  0
 44 45  1  0
 45 46  1  0
 46 47  1  0
 28 48  1  0
 48 49  2  0
 49  2  1  0
 20  6  1  0
 49 26  1  0
 18 11  1  0
 37 33  1  0
 42 38  2  0
 47 45  1  0
 45 41  1  0
M  END
$$$$
