
     RDKit          3D

 49 56  0  0  0  0  0  0  0  0999 V2000
  -10.6408  -14.5360   22.2606 C   0  0  0  0  0  0  0  0  0  0  0  0
  -11.7811  -13.7834   22.8562 C   0  0  0  0  0  0  0  0  0  0  0  0
  -11.4018  -12.4979   23.3500 C   0  0  0  0  0  0  0  0  0  0  0  0
  -10.2955  -11.8938   23.3201 C   0  0  0  0  0  0  0  0  0  0  0  0
   -9.2870  -11.3305   23.3032 C   0  0  0  0  0  0  0  0  0  0  0  0
   -7.8564  -10.5448   23.3057 C   0  0  0  0  0  0  0  0  0  0  0  0
   -6.7423  -10.9007   23.7891 C   0  0  0  0  0  0  0  0  0  0  0  0
   -5.6201  -10.1899   23.5303 C   0  0  0  0  0  0  0  0  0  0  0  0
   -5.5389   -9.0664   22.7423 C   0  0  0  0  0  0  0  0  0  0  0  0
   -4.2483   -8.4547   22.4877 C   0  0  0  0  0  0  0  0  0  0  0  0
   -3.6490   -8.8317   21.2135 N   0  0  0  0  0  0  0  0  0  0  0  0
   -3.8021  -10.1661   20.7629 C   0  0  0  0  0  0  0  0  0  0  0  0
   -2.5024  -10.9997   20.8186 C   0  0  0  0  0  0  0  0  0  0  0  0
   -1.8745  -10.8225   22.1440 C   0  0  0  0  0  0  0  0  0  0  0  0
   -0.6279  -11.6972   22.2801 C   0  0  0  0  0  0  0  0  0  0  0  0
   -0.3388  -12.4173   21.1635 O   0  0  0  0  0  0  0  0  0  0  0  0
   -1.4487   -9.3564   22.2135 C   0  0  0  0  0  0  0  0  0  0  0  0
   -2.2262   -8.4690   21.2469 C   0  0  0  0  0  0  0  0  0  0  0  0
   -6.7786   -8.6590   22.2065 C   0  0  0  0  0  0  0  0  0  0  0  0
   -7.9836   -9.3630   22.4550 C   0  0  0  0  0  0  0  0  0  0  0  0
  -12.5481  -11.9125   24.0507 C   0  0  0  0  0  0  0  0  0  0  0  0
  -13.7665  -12.3688   24.2679 C   0  0  0  0  0  0  0  0  0  0  0  0
  -14.8772  -11.7610   25.0161 C   0  0  0  0  0  0  0  0  0  0  0  0
  -15.2235  -12.5080   26.1560 F   0  0  0  0  0  0  0  0  0  0  0  0
  -14.5774  -10.4680   25.4990 F   0  0  0  0  0  0  0  0  0  0  0  0
  -14.0521  -13.7090   23.7300 C   0  0  0  0  0  0  0  0  0  0  0  0
  -15.0963  -14.5391   23.7446 C   0  0  0  0  0  0  0  0  0  0  0  0
  -14.7070  -15.6561   23.0621 N   0  0  0  0  0  0  0  0  0  0  0  0
  -15.3815  -16.8684   22.7609 C   0  0  1  0  0  0  0  0  0  0  0  0
  -16.8262  -17.0018   23.1612 C   0  0  0  0  0  0  0  0  0  0  0  0
  -17.4574  -16.0556   23.7224 O   0  0  0  0  0  0  0  0  0  0  0  0
  -17.4516  -18.2007   22.8667 N   0  0  0  0  0  0  0  0  0  0  0  0
  -18.6869  -18.7668   23.0575 C   0  0  0  0  0  0  0  0  0  0  0  0
  -19.0708  -20.1827   22.4168 N   0  0  0  0  0  0  0  0  0  0  0  0
  -20.2409  -20.4503   22.8636 C   0  0  0  0  0  0  0  0  0  0  0  0
  -21.0398  -19.6781   23.7249 C   0  0  0  0  0  0  0  0  0  0  0  0
  -20.0163  -18.4626   23.9165 S   0  0  0  0  0  0  0  0  0  0  0  0
  -15.2126  -17.0062   21.2455 C   0  0  0  0  0  0  0  0  0  0  0  0
  -16.2139  -16.4502   20.4583 N   0  0  0  0  0  0  0  0  0  0  0  0
  -15.8424  -16.5536   19.1933 C   0  0  0  0  0  0  0  0  0  0  0  0
  -14.6608  -17.1209   19.1094 N   0  0  0  0  0  0  0  0  0  0  0  0
  -14.2642  -17.4253   20.4146 C   0  0  0  0  0  0  0  0  0  0  0  0
  -13.0513  -18.3125   20.3346 C   0  0  0  0  0  0  0  0  0  0  0  0
  -13.1876  -18.8093   18.8647 C   0  0  0  0  0  0  0  0  0  0  0  0
  -13.5516  -17.4450   18.2843 C   0  0  0  0  0  0  0  0  0  0  0  0
  -12.4267  -16.4725   18.0668 C   0  0  0  0  0  0  0  0  0  0  0  0
  -13.2606  -17.0651   16.9108 C   0  0  0  0  0  0  0  0  0  0  0  0
  -13.4430  -15.4700   22.6606 N   0  0  0  0  0  0  0  0  0  0  0  0
  -13.0087  -14.2184   23.0879 C   0  0  0  0  0  0  0  0  0  0  0  0
  1  2  1  0
  2  3  2  0
  3  4  1  0
  4  5  3  0
  5  6  1  0
  6  7  2  0
  7  8  1  0
  8  9  2  0
  9 10  1  0
 10 11  1  0
 11 12  1  0
 12 13  1  0
 13 14  1  0
 14 15  1  0
 15 16  1  0
 14 17  1  0
 17 18  1  0
  9 19  1  0
 19 20  2  0
  3 21  1  0
 21 22  2  0
 22 23  1  0
 23 24  1  0
 23 25  1  0
 22 26  1  0
 26 27  2  0
 27 28  1  0
 29 28  1  6
 29 30  1  0
 30 31  2  0
 30 32  1  0
 32 33  1  0
 33 34  2  0
 34 35  1  0
 35 36  2  0
 36 37  1  0
 29 38  1  0
 38 39  1  0
 39 40  2  0
 40 41  1  0
 41 42  1  0
 42 43  1  0
 43 44  1  0
 44 45  1  0
 45 46  1  0
 46 47  1  0
 28 48  1  0
 48 49  2  0
 49  2  1  0
 20  6  1  0
 49 26  1  0
 18 11  1  0
 37 33  1  0
 42 38  2  0
 47 45  1  0
 45 41  1  0
M  END
$$$$
