
     RDKit          3D

 49 56  0  0  0  0  0  0  0  0999 V2000
  -14.6801  -16.6619   20.5709 C   0  0  0  0  0  0  0  0  0  0  0  0
  -14.6154  -15.8524   21.8206 C   0  0  0  0  0  0  0  0  0  0  0  0
  -15.6911  -16.1288   22.7187 C   0  0  0  0  0  0  0  0  0  0  0  0
  -16.6355  -16.9611   22.6469 C   0  0  0  0  0  0  0  0  0  0  0  0
  -17.4955  -17.7307   22.5935 C   0  0  0  0  0  0  0  0  0  0  0  0
  -18.7256  -18.8018   22.5362 C   0  0  0  0  0  0  0  0  0  0  0  0
  -19.5200  -19.1664   23.4513 C   0  0  0  0  0  0  0  0  0  0  0  0
  -20.5973  -19.9334   23.1636 C   0  0  0  0  0  0  0  0  0  0  0  0
  -20.9627  -20.3777   21.9151 C   0  0  0  0  0  0  0  0  0  0  0  0
  -22.1937  -21.1268   21.7469 C   0  0  0  0  0  0  0  0  0  0  0  0
  -21.9976  -22.5279   21.3958 N   0  0  0  0  0  0  0  0  0  0  0  0
  -21.3208  -22.8342   20.1895 C   0  0  0  0  0  0  0  0  0  0  0  0
  -22.2351  -23.4157   19.0879 C   0  0  0  0  0  0  0  0  0  0  0  0
  -23.4402  -22.5698   18.9678 C   0  0  0  0  0  0  0  0  0  0  0  0
  -24.3377  -23.0547   17.8289 C   0  0  0  0  0  0  0  0  0  0  0  0
  -24.2968  -24.3996   17.6334 O   0  0  0  0  0  0  0  0  0  0  0  0
  -24.1981  -22.7303   20.2851 C   0  0  0  0  0  0  0  0  0  0  0  0
  -23.3035  -23.1994   21.4279 C   0  0  0  0  0  0  0  0  0  0  0  0
  -20.0772  -19.9818   20.8909 C   0  0  0  0  0  0  0  0  0  0  0  0
  -18.9304  -19.1870   21.1411 C   0  0  0  0  0  0  0  0  0  0  0  0
  -15.6238  -15.1772   23.8312 C   0  0  0  0  0  0  0  0  0  0  0  0
  -14.7852  -14.1926   24.0904 C   0  0  0  0  0  0  0  0  0  0  0  0
  -14.7807  -13.2318   25.2038 C   0  0  0  0  0  0  0  0  0  0  0  0
  -15.7694  -13.5208   26.1608 F   0  0  0  0  0  0  0  0  0  0  0  0
  -13.5641  -13.2213   25.9212 F   0  0  0  0  0  0  0  0  0  0  0  0
  -13.7207  -13.9816   23.0958 C   0  0  0  0  0  0  0  0  0  0  0  0
  -12.7175  -13.1156   22.9427 C   0  0  0  0  0  0  0  0  0  0  0  0
  -12.0903  -13.4582   21.7790 N   0  0  0  0  0  0  0  0  0  0  0  0
  -10.9743  -12.9004   21.1016 C   0  0  1  0  0  0  0  0  0  0  0  0
   -9.8520  -12.3264   21.9240 C   0  0  0  0  0  0  0  0  0  0  0  0
   -9.3176  -12.9735   22.8749 O   0  0  0  0  0  0  0  0  0  0  0  0
   -9.4052  -11.0622   21.5816 N   0  0  0  0  0  0  0  0  0  0  0  0
   -8.4370  -10.1864   22.0041 C   0  0  0  0  0  0  0  0  0  0  0  0
   -8.0226   -8.9078   21.1346 N   0  0  0  0  0  0  0  0  0  0  0  0
   -7.1757   -8.2700   21.8531 C   0  0  0  0  0  0  0  0  0  0  0  0
   -6.6918   -8.6055   23.1297 C   0  0  0  0  0  0  0  0  0  0  0  0
   -7.5337   -9.9535   23.3185 S   0  0  0  0  0  0  0  0  0  0  0  0
  -10.4806  -14.0484   20.2172 C   0  0  0  0  0  0  0  0  0  0  0  0
   -9.2861  -14.6504   20.5944 N   0  0  0  0  0  0  0  0  0  0  0  0
   -9.0833  -15.6873   19.7990 C   0  0  0  0  0  0  0  0  0  0  0  0
  -10.0745  -15.8088   18.9458 N   0  0  0  0  0  0  0  0  0  0  0  0
  -10.9582  -14.7560   19.1991 C   0  0  0  0  0  0  0  0  0  0  0  0
  -11.9553  -14.7078   18.0729 C   0  0  0  0  0  0  0  0  0  0  0  0
  -11.1777  -15.5269   17.0004 C   0  0  0  0  0  0  0  0  0  0  0  0
  -10.7071  -16.6147   17.9627 C   0  0  0  0  0  0  0  0  0  0  0  0
  -11.7062  -17.6717   18.3410 C   0  0  0  0  0  0  0  0  0  0  0  0
  -10.4223  -17.9771   17.5403 C   0  0  0  0  0  0  0  0  0  0  0  0
  -12.7330  -14.5141   21.2636 N   0  0  0  0  0  0  0  0  0  0  0  0
  -13.7885  -14.8592   22.1029 C   0  0  0  0  0  0  0  0  0  0  0  0
  1  2  1  0
  2  3  2  0
  3  4  1  0
  4  5  3  0
  5  6  1  0
  6  7  2  0
  7  8  1  0
  8  9  2  0
  9 10  1  0
 10 11  1  0
 11 12  1  0
 12 13  1  0
 13 14  1  0
 14 15  1  0
 15 16  1  0
 14 17  1  0
 17 18  1  0
  9 19  1  0
 19 20  2  0
  3 21  1  0
 21 22  2  0
 22 23  1  0
 23 24  1  0
 23 25  1  0
 22 26  1  0
 26 27  2  0
 27 28  1  0
 29 28  1  1
 29 30  1  0
 30 31  2  0
 30 32  1  0
 32 33  1  0
 33 34  2  0
 34 35  1  0
 35 36  2  0
 36 37  1  0
 29 38  1  0
 38 39  1  0
 39 40  2  0
 40 41  1  0
 41 42  1  0
 42 43  1  0
 43 44  1  0
 44 45  1  0
 45 46  1  0
 46 47  1  0
 28 48  1  0
 48 49  2  0
 49  2  1  0
 20  6  1  0
 49 26  1  0
 18 11  1  0
 37 33  1  0
 42 38  2  0
 47 45  1  0
 45 41  1  0
M  END
$$$$
