
     RDKit          3D

 49 56  0  0  0  0  0  0  0  0999 V2000
  -12.5879  -15.3488   20.4778 C   0  0  0  0  0  0  0  0  0  0  0  0
  -13.5790  -15.1699   21.5764 C   0  0  0  0  0  0  0  0  0  0  0  0
  -13.1118  -14.3034   22.6113 C   0  0  0  0  0  0  0  0  0  0  0  0
  -12.0421  -13.6444   22.7183 C   0  0  0  0  0  0  0  0  0  0  0  0
  -11.0701  -13.0276   22.8158 C   0  0  0  0  0  0  0  0  0  0  0  0
   -9.7085  -12.1359   22.9372 C   0  0  0  0  0  0  0  0  0  0  0  0
   -8.6547  -12.1748   22.2375 C   0  0  0  0  0  0  0  0  0  0  0  0
   -7.6998  -11.2259   22.3766 C   0  0  0  0  0  0  0  0  0  0  0  0
   -7.7489  -10.1488   23.2293 C   0  0  0  0  0  0  0  0  0  0  0  0
   -6.6837   -9.1641   23.2110 C   0  0  0  0  0  0  0  0  0  0  0  0
   -5.6984   -9.3688   22.1565 N   0  0  0  0  0  0  0  0  0  0  0  0
   -5.0080  -10.6049   22.1071 C   0  0  0  0  0  0  0  0  0  0  0  0
   -3.5194  -10.5081   22.5099 C   0  0  0  0  0  0  0  0  0  0  0  0
   -3.4115   -9.7460   23.7707 C   0  0  0  0  0  0  0  0  0  0  0  0
   -1.9631   -9.6967   24.2580 C   0  0  0  0  0  0  0  0  0  0  0  0
   -1.1420  -10.5776   23.6266 O   0  0  0  0  0  0  0  0  0  0  0  0
   -3.8613   -8.3233   23.4405 C   0  0  0  0  0  0  0  0  0  0  0  0
   -4.7410   -8.2557   22.1964 C   0  0  0  0  0  0  0  0  0  0  0  0
   -8.9174  -10.1034   24.0184 C   0  0  0  0  0  0  0  0  0  0  0  0
   -9.9424  -11.0774   23.9177 C   0  0  0  0  0  0  0  0  0  0  0  0
  -14.0849  -14.3212   23.7070 C   0  0  0  0  0  0  0  0  0  0  0  0
  -15.2248  -14.9685   23.8538 C   0  0  0  0  0  0  0  0  0  0  0  0
  -16.1531  -14.9881   24.9943 C   0  0  0  0  0  0  0  0  0  0  0  0
  -16.1375  -16.2197   25.6727 F   0  0  0  0  0  0  0  0  0  0  0  0
  -15.8439  -14.0216   25.9766 F   0  0  0  0  0  0  0  0  0  0  0  0
  -15.6096  -15.8462   22.7365 C   0  0  0  0  0  0  0  0  0  0  0  0
  -16.6202  -16.6796   22.4836 C   0  0  0  0  0  0  0  0  0  0  0  0
  -16.3786  -17.2108   21.2489 N   0  0  0  0  0  0  0  0  0  0  0  0
  -17.0932  -18.1535   20.4642 C   0  0  1  0  0  0  0  0  0  0  0  0
  -16.3369  -18.9430   19.4298 C   0  0  0  0  0  0  0  0  0  0  0  0
  -15.0979  -19.1877   19.5457 O   0  0  0  0  0  0  0  0  0  0  0  0
  -17.0599  -19.4177   18.3494 N   0  0  0  0  0  0  0  0  0  0  0  0
  -16.8174  -20.1643   17.2239 C   0  0  0  0  0  0  0  0  0  0  0  0
  -17.9846  -20.5337   16.1926 N   0  0  0  0  0  0  0  0  0  0  0  0
  -17.4037  -21.1454   15.2289 C   0  0  0  0  0  0  0  0  0  0  0  0
  -16.0378  -21.4474   15.0889 C   0  0  0  0  0  0  0  0  0  0  0  0
  -15.5421  -20.7873   16.4601 S   0  0  0  0  0  0  0  0  0  0  0  0
  -17.7327  -19.0760   21.5053 C   0  0  0  0  0  0  0  0  0  0  0  0
  -17.0278  -20.2302   21.8254 N   0  0  0  0  0  0  0  0  0  0  0  0
  -17.6613  -20.8325   22.8179 C   0  0  0  0  0  0  0  0  0  0  0  0
  -18.7168  -20.1369   23.1746 N   0  0  0  0  0  0  0  0  0  0  0  0
  -18.7742  -19.0256   22.3289 C   0  0  0  0  0  0  0  0  0  0  0  0
  -20.1090  -18.3601   22.5293 C   0  0  0  0  0  0  0  0  0  0  0  0
  -20.8885  -19.5333   23.1941 C   0  0  0  0  0  0  0  0  0  0  0  0
  -19.7539  -19.9506   24.1264 C   0  0  0  0  0  0  0  0  0  0  0  0
  -19.5435  -19.1206   25.3614 C   0  0  0  0  0  0  0  0  0  0  0  0
  -19.9799  -20.6005   25.4079 C   0  0  0  0  0  0  0  0  0  0  0  0
  -15.2318  -16.6879   20.7962 N   0  0  0  0  0  0  0  0  0  0  0  0
  -14.7249  -15.8081   21.7484 C   0  0  0  0  0  0  0  0  0  0  0  0
  1  2  1  0
  2  3  2  0
  3  4  1  0
  4  5  3  0
  5  6  1  0
  6  7  2  0
  7  8  1  0
  8  9  2  0
  9 10  1  0
 10 11  1  0
 11 12  1  0
 12 13  1  0
 13 14  1  0
 14 15  1  0
 15 16  1  0
 14 17  1  0
 17 18  1  0
  9 19  1  0
 19 20  2  0
  3 21  1  0
 21 22  2  0
 22 23  1  0
 23 24  1  0
 23 25  1  0
 22 26  1  0
 26 27  2  0
 27 28  1  0
 29 28  1  1
 29 30  1  0
 30 31  2  0
 30 32  1  0
 32 33  1  0
 33 34  2  0
 34 35  1  0
 35 36  2  0
 36 37  1  0
 29 38  1  0
 38 39  1  0
 39 40  2  0
 40 41  1  0
 41 42  1  0
 42 43  1  0
 43 44  1  0
 44 45  1  0
 45 46  1  0
 46 47  1  0
 28 48  1  0
 48 49  2  0
 49  2  1  0
 20  6  1  0
 49 26  1  0
 18 11  1  0
 37 33  1  0
 42 38  2  0
 47 45  1  0
 45 41  1  0
M  END
$$$$
