
     RDKit          3D

 49 56  0  0  0  0  0  0  0  0999 V2000
  -14.6229  -15.5660   20.2834 C   0  0  0  0  0  0  0  0  0  0  0  0
  -14.5439  -15.0931   21.6945 C   0  0  0  0  0  0  0  0  0  0  0  0
  -15.5264  -15.6950   22.5387 C   0  0  0  0  0  0  0  0  0  0  0  0
  -16.3964  -16.5754   22.2980 C   0  0  0  0  0  0  0  0  0  0  0  0
  -17.1869  -17.3847   22.0639 C   0  0  0  0  0  0  0  0  0  0  0  0
  -18.2846  -18.5482   21.7401 C   0  0  0  0  0  0  0  0  0  0  0  0
  -18.1656  -19.5965   21.0413 C   0  0  0  0  0  0  0  0  0  0  0  0
  -19.1379  -20.5379   21.0397 C   0  0  0  0  0  0  0  0  0  0  0  0
  -20.3049  -20.4955   21.7649 C   0  0  0  0  0  0  0  0  0  0  0  0
  -21.2205  -21.6201   21.7261 C   0  0  0  0  0  0  0  0  0  0  0  0
  -21.7631  -21.9040   20.4033 N   0  0  0  0  0  0  0  0  0  0  0  0
  -22.6244  -20.9502   19.8071 C   0  0  0  0  0  0  0  0  0  0  0  0
  -24.1018  -21.3972   19.7363 C   0  0  0  0  0  0  0  0  0  0  0  0
  -24.5108  -21.9151   21.0579 C   0  0  0  0  0  0  0  0  0  0  0  0
  -25.9929  -22.2906   21.0637 C   0  0  0  0  0  0  0  0  0  0  0  0
  -26.8283  -21.2272   20.9221 O   0  0  0  0  0  0  0  0  0  0  0  0
  -23.6880  -23.1829   21.2844 C   0  0  0  0  0  0  0  0  0  0  0  0
  -22.4155  -23.2192   20.4441 C   0  0  0  0  0  0  0  0  0  0  0  0
  -20.4483  -19.3257   22.5403 C   0  0  0  0  0  0  0  0  0  0  0  0
  -19.4639  -18.3062   22.5692 C   0  0  0  0  0  0  0  0  0  0  0  0
  -15.4669  -15.0507   23.8536 C   0  0  0  0  0  0  0  0  0  0  0  0
  -14.7026  -14.0815   24.3189 C   0  0  0  0  0  0  0  0  0  0  0  0
  -14.7062  -13.4351   25.6398 C   0  0  0  0  0  0  0  0  0  0  0  0
  -15.7958  -13.8428   26.4295 F   0  0  0  0  0  0  0  0  0  0  0  0
  -13.5600  -13.7378   26.4076 F   0  0  0  0  0  0  0  0  0  0  0  0
  -13.7321  -13.5196   23.3653 C   0  0  0  0  0  0  0  0  0  0  0  0
  -12.8223  -12.5443   23.3948 C   0  0  0  0  0  0  0  0  0  0  0  0
  -12.2490  -12.5180   22.1556 N   0  0  0  0  0  0  0  0  0  0  0  0
  -11.2361  -11.6965   21.5949 C   0  0  1  0  0  0  0  0  0  0  0  0
  -10.2387  -11.0567   22.5230 C   0  0  0  0  0  0  0  0  0  0  0  0
   -9.1907  -11.6618   22.9025 O   0  0  0  0  0  0  0  0  0  0  0  0
  -10.5006   -9.7600   22.9293 N   0  0  0  0  0  0  0  0  0  0  0  0
   -9.9467   -8.8399   23.7835 C   0  0  0  0  0  0  0  0  0  0  0  0
  -10.6255   -7.4124   24.0366 N   0  0  0  0  0  0  0  0  0  0  0  0
   -9.9119   -6.8541   24.9418 C   0  0  0  0  0  0  0  0  0  0  0  0
   -8.7687   -7.3618   25.5834 C   0  0  0  0  0  0  0  0  0  0  0  0
   -8.7182   -8.7700   24.8245 S   0  0  0  0  0  0  0  0  0  0  0  0
  -10.5426  -12.6182   20.5883 C   0  0  0  0  0  0  0  0  0  0  0  0
   -9.3407  -13.1855   20.9947 N   0  0  0  0  0  0  0  0  0  0  0  0
   -8.9554  -14.0375   20.0595 C   0  0  0  0  0  0  0  0  0  0  0  0
   -9.8353  -14.0745   19.0851 N   0  0  0  0  0  0  0  0  0  0  0  0
  -10.8396  -13.1589   19.4115 C   0  0  0  0  0  0  0  0  0  0  0  0
  -11.7136  -12.9793   18.1996 C   0  0  0  0  0  0  0  0  0  0  0  0
  -10.7518  -13.5219   17.1012 C   0  0  0  0  0  0  0  0  0  0  0  0
  -10.2798  -14.7300   17.9066 C   0  0  0  0  0  0  0  0  0  0  0  0
  -11.2044  -15.9130   17.9698 C   0  0  0  0  0  0  0  0  0  0  0  0
   -9.8202  -15.9638   17.2884 C   0  0  0  0  0  0  0  0  0  0  0  0
  -12.8300  -13.4715   21.4160 N   0  0  0  0  0  0  0  0  0  0  0  0
  -13.7905  -14.1227   22.1849 C   0  0  0  0  0  0  0  0  0  0  0  0
  1  2  1  0
  2  3  2  0
  3  4  1  0
  4  5  3  0
  5  6  1  0
  6  7  2  0
  7  8  1  0
  8  9  2  0
  9 10  1  0
 10 11  1  0
 11 12  1  0
 12 13  1  0
 13 14  1  0
 14 15  1  0
 15 16  1  0
 14 17  1  0
 17 18  1  0
  9 19  1  0
 19 20  2  0
  3 21  1  0
 21 22  2  0
 22 23  1  0
 23 24  1  0
 23 25  1  0
 22 26  1  0
 26 27  2  0
 27 28  1  0
 29 28  1  1
 29 30  1  0
 30 31  2  0
 30 32  1  0
 32 33  1  0
 33 34  2  0
 34 35  1  0
 35 36  2  0
 36 37  1  0
 29 38  1  0
 38 39  1  0
 39 40  2  0
 40 41  1  0
 41 42  1  0
 42 43  1  0
 43 44  1  0
 44 45  1  0
 45 46  1  0
 46 47  1  0
 28 48  1  0
 48 49  2  0
 49  2  1  0
 20  6  1  0
 49 26  1  0
 18 11  1  0
 37 33  1  0
 42 38  2  0
 47 45  1  0
 45 41  1  0
M  END
$$$$
