
     RDKit          3D

 49 56  0  0  0  0  0  0  0  0999 V2000
  -17.4346  -15.6707   23.3987 C   0  0  0  0  0  0  0  0  0  0  0  0
  -16.5648  -16.2543   22.3385 C   0  0  0  0  0  0  0  0  0  0  0  0
  -17.0200  -17.5301   21.8854 C   0  0  0  0  0  0  0  0  0  0  0  0
  -18.0402  -18.2026   22.1964 C   0  0  0  0  0  0  0  0  0  0  0  0
  -18.9691  -18.8309   22.4739 C   0  0  0  0  0  0  0  0  0  0  0  0
  -20.2724  -19.7194   22.8932 C   0  0  0  0  0  0  0  0  0  0  0  0
  -21.1880  -19.4627   23.7282 C   0  0  0  0  0  0  0  0  0  0  0  0
  -22.2895  -20.2452   23.8054 C   0  0  0  0  0  0  0  0  0  0  0  0
  -22.5558  -21.3450   23.0249 C   0  0  0  0  0  0  0  0  0  0  0  0
  -23.8207  -22.0413   23.1658 C   0  0  0  0  0  0  0  0  0  0  0  0
  -23.9237  -23.2602   22.3729 N   0  0  0  0  0  0  0  0  0  0  0  0
  -23.7701  -23.1674   20.9676 C   0  0  0  0  0  0  0  0  0  0  0  0
  -25.0809  -23.3818   20.1781 C   0  0  0  0  0  0  0  0  0  0  0  0
  -26.1446  -22.5507   20.7784 C   0  0  0  0  0  0  0  0  0  0  0  0
  -27.4426  -22.6615   19.9781 C   0  0  0  0  0  0  0  0  0  0  0  0
  -27.6535  -23.8938   19.4436 O   0  0  0  0  0  0  0  0  0  0  0  0
  -26.3851  -23.1221   22.1751 C   0  0  0  0  0  0  0  0  0  0  0  0
  -25.1951  -23.9184   22.7006 C   0  0  0  0  0  0  0  0  0  0  0  0
  -21.5355  -21.6421   22.0971 C   0  0  0  0  0  0  0  0  0  0  0  0
  -20.3589  -20.8599   21.9830 C   0  0  0  0  0  0  0  0  0  0  0  0
  -16.0185  -18.0822   20.9689 C   0  0  0  0  0  0  0  0  0  0  0  0
  -14.8628  -17.6066   20.5468 C   0  0  0  0  0  0  0  0  0  0  0  0
  -13.8659  -18.2172   19.6545 C   0  0  0  0  0  0  0  0  0  0  0  0
  -12.6440  -18.4589   20.3070 F   0  0  0  0  0  0  0  0  0  0  0  0
  -14.2698  -19.4731   19.1500 F   0  0  0  0  0  0  0  0  0  0  0  0
  -14.4789  -16.2909   21.0837 C   0  0  0  0  0  0  0  0  0  0  0  0
  -13.4251  -15.4820   20.9611 C   0  0  0  0  0  0  0  0  0  0  0  0
  -13.6849  -14.3935   21.7438 N   0  0  0  0  0  0  0  0  0  0  0  0
  -12.9349  -13.2196   22.0172 C   0  0  1  0  0  0  0  0  0  0  0  0
  -12.6837  -12.8498   23.4544 C   0  0  0  0  0  0  0  0  0  0  0  0
  -12.4311  -13.7237   24.3381 O   0  0  0  0  0  0  0  0  0  0  0  0
  -12.7144  -11.5030   23.7711 N   0  0  0  0  0  0  0  0  0  0  0  0
  -12.7739  -10.7356   24.9071 C   0  0  0  0  0  0  0  0  0  0  0  0
  -14.0769   -9.8829   25.2783 N   0  0  0  0  0  0  0  0  0  0  0  0
  -13.8308   -9.3712   26.4263 C   0  0  0  0  0  0  0  0  0  0  0  0
  -12.6700   -9.5072   27.2076 C   0  0  0  0  0  0  0  0  0  0  0  0
  -11.8626  -10.4612   26.2079 S   0  0  0  0  0  0  0  0  0  0  0  0
  -11.6201  -13.4509   21.2678 C   0  0  0  0  0  0  0  0  0  0  0  0
  -10.5223  -13.8100   22.0408 N   0  0  0  0  0  0  0  0  0  0  0  0
   -9.5207  -14.0865   21.2225 C   0  0  0  0  0  0  0  0  0  0  0  0
   -9.9011  -13.9497   19.9729 N   0  0  0  0  0  0  0  0  0  0  0  0
  -11.2337  -13.5288   19.9989 C   0  0  0  0  0  0  0  0  0  0  0  0
  -11.6122  -13.1044   18.6056 C   0  0  0  0  0  0  0  0  0  0  0  0
  -10.1919  -12.8975   18.0007 C   0  0  0  0  0  0  0  0  0  0  0  0
   -9.5920  -14.1652   18.6039 C   0  0  0  0  0  0  0  0  0  0  0  0
   -9.9154  -15.4654   17.9232 C   0  0  0  0  0  0  0  0  0  0  0  0
   -8.4862  -14.8865   17.9934 C   0  0  0  0  0  0  0  0  0  0  0  0
  -14.8812  -14.5781   22.3169 N   0  0  0  0  0  0  0  0  0  0  0  0
  -15.4021  -15.8001   21.9008 C   0  0  0  0  0  0  0  0  0  0  0  0
  1  2  1  0
  2  3  2  0
  3  4  1  0
  4  5  3  0
  5  6  1  0
  6  7  2  0
  7  8  1  0
  8  9  2  0
  9 10  1  0
 10 11  1  0
 11 12  1  0
 12 13  1  0
 13 14  1  0
 14 15  1  0
 15 16  1  0
 14 17  1  0
 17 18  1  0
  9 19  1  0
 19 20  2  0
  3 21  1  0
 21 22  2  0
 22 23  1  0
 23 24  1  0
 23 25  1  0
 22 26  1  0
 26 27  2  0
 27 28  1  0
 29 28  1  1
 29 30  1  0
 30 31  2  0
 30 32  1  0
 32 33  1  0
 33 34  2  0
 34 35  1  0
 35 36  2  0
 36 37  1  0
 29 38  1  0
 38 39  1  0
 39 40  2  0
 40 41  1  0
 41 42  1  0
 42 43  1  0
 43 44  1  0
 44 45  1  0
 45 46  1  0
 46 47  1  0
 28 48  1  0
 48 49  2  0
 49  2  1  0
 20  6  1  0
 49 26  1  0
 18 11  1  0
 37 33  1  0
 42 38  2  0
 47 45  1  0
 45 41  1  0
M  END
$$$$
