
     RDKit          3D

 49 56  0  0  0  0  0  0  0  0999 V2000
  -11.2574  -14.9055   21.7090 C   0  0  0  0  0  0  0  0  0  0  0  0
  -12.2791  -14.3002   22.6095 C   0  0  0  0  0  0  0  0  0  0  0  0
  -11.8055  -13.1332   23.2831 C   0  0  0  0  0  0  0  0  0  0  0  0
  -10.7060  -12.5210   23.2034 C   0  0  0  0  0  0  0  0  0  0  0  0
   -9.7050  -11.9480   23.1369 C   0  0  0  0  0  0  0  0  0  0  0  0
   -8.2997  -11.1213   23.0644 C   0  0  0  0  0  0  0  0  0  0  0  0
   -7.3421  -11.0856   23.8909 C   0  0  0  0  0  0  0  0  0  0  0  0
   -6.1750  -10.4812   23.5679 C   0  0  0  0  0  0  0  0  0  0  0  0
   -5.8824   -9.8780   22.3678 C   0  0  0  0  0  0  0  0  0  0  0  0
   -4.5551   -9.3410   22.1342 C   0  0  0  0  0  0  0  0  0  0  0  0
   -3.8705   -9.9184   20.9841 N   0  0  0  0  0  0  0  0  0  0  0  0
   -3.8743  -11.3269   20.8323 C   0  0  0  0  0  0  0  0  0  0  0  0
   -2.5028  -11.9893   21.0925 C   0  0  0  0  0  0  0  0  0  0  0  0
   -1.9497  -11.4671   22.3589 C   0  0  0  0  0  0  0  0  0  0  0  0
   -0.6303  -12.1576   22.7056 C   0  0  0  0  0  0  0  0  0  0  0  0
    0.0174  -12.6750   21.6278 O   0  0  0  0  0  0  0  0  0  0  0  0
   -1.6721   -9.9842   22.1153 C   0  0  0  0  0  0  0  0  0  0  0  0
   -2.4924   -9.4110   20.9642 C   0  0  0  0  0  0  0  0  0  0  0  0
   -6.9483   -9.9069   21.4441 C   0  0  0  0  0  0  0  0  0  0  0  0
   -8.1930  -10.5185   21.7369 C   0  0  0  0  0  0  0  0  0  0  0  0
  -12.8201  -12.7126   24.2533 C   0  0  0  0  0  0  0  0  0  0  0  0
  -13.9990  -13.2183   24.5608 C   0  0  0  0  0  0  0  0  0  0  0  0
  -14.9707  -12.7847   25.5759 C   0  0  0  0  0  0  0  0  0  0  0  0
  -15.7827  -11.7310   25.1203 F   0  0  0  0  0  0  0  0  0  0  0  0
  -15.8695  -13.8065   25.9541 F   0  0  0  0  0  0  0  0  0  0  0  0
  -14.3878  -14.4290   23.8192 C   0  0  0  0  0  0  0  0  0  0  0  0
  -15.4324  -15.2588   23.8299 C   0  0  0  0  0  0  0  0  0  0  0  0
  -15.1724  -16.2136   22.8887 N   0  0  0  0  0  0  0  0  0  0  0  0
  -15.9069  -17.3508   22.4614 C   0  0  1  0  0  0  0  0  0  0  0  0
  -17.3803  -17.4058   22.7637 C   0  0  0  0  0  0  0  0  0  0  0  0
  -18.0109  -16.4022   23.2152 O   0  0  0  0  0  0  0  0  0  0  0  0
  -18.0311  -18.5989   22.5027 N   0  0  0  0  0  0  0  0  0  0  0  0
  -19.1172  -19.2821   22.9890 C   0  0  0  0  0  0  0  0  0  0  0  0
  -19.1642  -19.8246   24.4943 N   0  0  0  0  0  0  0  0  0  0  0  0
  -20.3357  -20.3216   24.6386 C   0  0  0  0  0  0  0  0  0  0  0  0
  -21.3715  -20.3948   23.6908 C   0  0  0  0  0  0  0  0  0  0  0  0
  -20.5965  -19.6793   22.4871 S   0  0  0  0  0  0  0  0  0  0  0  0
  -15.6498  -17.3981   20.9529 C   0  0  0  0  0  0  0  0  0  0  0  0
  -16.6465  -16.8736   20.1386 N   0  0  0  0  0  0  0  0  0  0  0  0
  -16.2031  -16.8854   18.8927 C   0  0  0  0  0  0  0  0  0  0  0  0
  -14.9806  -17.3635   18.8478 N   0  0  0  0  0  0  0  0  0  0  0  0
  -14.6315  -17.7065   20.1570 C   0  0  0  0  0  0  0  0  0  0  0  0
  -13.3548  -18.5013   20.1023 C   0  0  0  0  0  0  0  0  0  0  0  0
  -13.3780  -18.9300   18.6051 C   0  0  0  0  0  0  0  0  0  0  0  0
  -13.8094  -17.5663   18.0711 C   0  0  0  0  0  0  0  0  0  0  0  0
  -12.7482  -16.5076   17.9632 C   0  0  0  0  0  0  0  0  0  0  0  0
  -13.4755  -17.0967   16.7356 C   0  0  0  0  0  0  0  0  0  0  0  0
  -13.9816  -15.9357   22.3425 N   0  0  0  0  0  0  0  0  0  0  0  0
  -13.4644  -14.7880   22.9366 C   0  0  0  0  0  0  0  0  0  0  0  0
  1  2  1  0
  2  3  2  0
  3  4  1  0
  4  5  3  0
  5  6  1  0
  6  7  2  0
  7  8  1  0
  8  9  2  0
  9 10  1  0
 10 11  1  0
 11 12  1  0
 12 13  1  0
 13 14  1  0
 14 15  1  0
 15 16  1  0
 14 17  1  0
 17 18  1  0
  9 19  1  0
 19 20  2  0
  3 21  1  0
 21 22  2  0
 22 23  1  0
 23 24  1  0
 23 25  1  0
 22 26  1  0
 26 27  2  0
 27 28  1  0
 29 28  1  6
 29 30  1  0
 30 31  2  0
 30 32  1  0
 32 33  1  0
 33 34  2  0
 34 35  1  0
 35 36  2  0
 36 37  1  0
 29 38  1  0
 38 39  1  0
 39 40  2  0
 40 41  1  0
 41 42  1  0
 42 43  1  0
 43 44  1  0
 44 45  1  0
 45 46  1  0
 46 47  1  0
 28 48  1  0
 48 49  2  0
 49  2  1  0
 20  6  1  0
 49 26  1  0
 18 11  1  0
 37 33  1  0
 42 38  2  0
 47 45  1  0
 45 41  1  0
M  END
$$$$
