
     RDKit          3D

 49 56  0  0  0  0  0  0  0  0999 V2000
  -10.5237  -14.5354   22.1567 C   0  0  0  0  0  0  0  0  0  0  0  0
  -11.6338  -13.7682   22.7893 C   0  0  0  0  0  0  0  0  0  0  0  0
  -11.2260  -12.4807   23.2541 C   0  0  0  0  0  0  0  0  0  0  0  0
  -10.1174  -11.8853   23.1737 C   0  0  0  0  0  0  0  0  0  0  0  0
   -9.1033  -11.3349   23.1145 C   0  0  0  0  0  0  0  0  0  0  0  0
   -7.6573  -10.5825   23.0335 C   0  0  0  0  0  0  0  0  0  0  0  0
   -6.9809  -10.2436   22.0191 C   0  0  0  0  0  0  0  0  0  0  0  0
   -5.8846   -9.4612   22.1517 C   0  0  0  0  0  0  0  0  0  0  0  0
   -5.3976   -8.9454   23.3292 C   0  0  0  0  0  0  0  0  0  0  0  0
   -4.2553   -8.0513   23.3081 C   0  0  0  0  0  0  0  0  0  0  0  0
   -3.5652   -7.9932   22.0255 N   0  0  0  0  0  0  0  0  0  0  0  0
   -3.4364   -9.1863   21.2725 C   0  0  0  0  0  0  0  0  0  0  0  0
   -1.9968   -9.7454   21.2248 C   0  0  0  0  0  0  0  0  0  0  0  0
   -1.4461   -9.7716   22.5953 C   0  0  0  0  0  0  0  0  0  0  0  0
   -0.0519  -10.3991   22.6128 C   0  0  0  0  0  0  0  0  0  0  0  0
    0.4962  -10.5515   21.3778 O   0  0  0  0  0  0  0  0  0  0  0  0
   -1.3262   -8.3106   23.0270 C   0  0  0  0  0  0  0  0  0  0  0  0
   -2.2457   -7.3841   22.2379 C   0  0  0  0  0  0  0  0  0  0  0  0
   -6.1421   -9.3256   24.4655 C   0  0  0  0  0  0  0  0  0  0  0  0
   -7.2916  -10.1508   24.3813 C   0  0  0  0  0  0  0  0  0  0  0  0
  -12.3391  -11.8795   23.9938 C   0  0  0  0  0  0  0  0  0  0  0  0
  -13.5511  -12.3243   24.2642 C   0  0  0  0  0  0  0  0  0  0  0  0
  -14.6266  -11.7005   25.0497 C   0  0  0  0  0  0  0  0  0  0  0  0
  -14.8879  -12.3973   26.2427 F   0  0  0  0  0  0  0  0  0  0  0  0
  -14.3247  -10.3806   25.4515 F   0  0  0  0  0  0  0  0  0  0  0  0
  -13.8676  -13.6677   23.7522 C   0  0  0  0  0  0  0  0  0  0  0  0
  -14.9163  -14.4897   23.8171 C   0  0  0  0  0  0  0  0  0  0  0  0
  -14.5625  -15.6165   23.1314 N   0  0  0  0  0  0  0  0  0  0  0  0
  -15.2572  -16.8266   22.8701 C   0  0  1  0  0  0  0  0  0  0  0  0
  -16.6988  -16.9290   23.2900 C   0  0  0  0  0  0  0  0  0  0  0  0
  -17.2898  -15.9853   23.8972 O   0  0  0  0  0  0  0  0  0  0  0  0
  -17.3676  -18.0951   22.9613 N   0  0  0  0  0  0  0  0  0  0  0  0
  -18.6076  -18.6414   23.1782 C   0  0  0  0  0  0  0  0  0  0  0  0
  -19.0693  -19.9924   22.4542 N   0  0  0  0  0  0  0  0  0  0  0  0
  -20.2210  -20.2628   22.9449 C   0  0  0  0  0  0  0  0  0  0  0  0
  -20.9476  -19.5391   23.9065 C   0  0  0  0  0  0  0  0  0  0  0  0
  -19.8783  -18.3699   24.1318 S   0  0  0  0  0  0  0  0  0  0  0  0
  -15.1078  -17.0067   21.3571 C   0  0  0  0  0  0  0  0  0  0  0  0
  -16.0452  -16.3589   20.5613 N   0  0  0  0  0  0  0  0  0  0  0  0
  -15.6901  -16.5226   19.2979 C   0  0  0  0  0  0  0  0  0  0  0  0
  -14.5767  -17.2153   19.2228 N   0  0  0  0  0  0  0  0  0  0  0  0
  -14.2122  -17.5393   20.5327 C   0  0  0  0  0  0  0  0  0  0  0  0
  -13.1022  -18.5534   20.4666 C   0  0  0  0  0  0  0  0  0  0  0  0
  -13.2949  -19.0567   19.0053 C   0  0  0  0  0  0  0  0  0  0  0  0
  -13.5109  -17.6708   18.4025 C   0  0  0  0  0  0  0  0  0  0  0  0
  -12.2882  -16.8291   18.1682 C   0  0  0  0  0  0  0  0  0  0  0  0
  -13.1839  -17.3471   17.0227 C   0  0  0  0  0  0  0  0  0  0  0  0
  -13.3142  -15.4441   22.6779 N   0  0  0  0  0  0  0  0  0  0  0  0
  -12.8543  -14.1915   23.0744 C   0  0  0  0  0  0  0  0  0  0  0  0
  1  2  1  0
  2  3  2  0
  3  4  1  0
  4  5  3  0
  5  6  1  0
  6  7  2  0
  7  8  1  0
  8  9  2  0
  9 10  1  0
 10 11  1  0
 11 12  1  0
 12 13  1  0
 13 14  1  0
 14 15  1  0
 15 16  1  0
 14 17  1  0
 17 18  1  0
  9 19  1  0
 19 20  2  0
  3 21  1  0
 21 22  2  0
 22 23  1  0
 23 24  1  0
 23 25  1  0
 22 26  1  0
 26 27  2  0
 27 28  1  0
 29 28  1  6
 29 30  1  0
 30 31  2  0
 30 32  1  0
 32 33  1  0
 33 34  2  0
 34 35  1  0
 35 36  2  0
 36 37  1  0
 29 38  1  0
 38 39  1  0
 39 40  2  0
 40 41  1  0
 41 42  1  0
 42 43  1  0
 43 44  1  0
 44 45  1  0
 45 46  1  0
 46 47  1  0
 28 48  1  0
 48 49  2  0
 49  2  1  0
 20  6  1  0
 49 26  1  0
 18 11  1  0
 37 33  1  0
 42 38  2  0
 47 45  1  0
 45 41  1  0
M  END
$$$$
