
     RDKit          3D

 49 56  0  0  0  0  0  0  0  0999 V2000
   -7.2116  -14.3682   20.7656 C   0  0  0  0  0  0  0  0  0  0  0  0
   -7.7938  -13.2053   21.4936 C   0  0  0  0  0  0  0  0  0  0  0  0
   -6.8363  -12.1792   21.7589 C   0  0  0  0  0  0  0  0  0  0  0  0
   -5.6198  -12.0808   21.4417 C   0  0  0  0  0  0  0  0  0  0  0  0
   -4.5095  -11.9871   21.1369 C   0  0  0  0  0  0  0  0  0  0  0  0
   -2.9345  -11.8459   20.7328 C   0  0  0  0  0  0  0  0  0  0  0  0
   -2.1711  -10.8391   20.8050 C   0  0  0  0  0  0  0  0  0  0  0  0
   -0.8405  -10.9666   20.5933 C   0  0  0  0  0  0  0  0  0  0  0  0
   -0.1760  -12.1355   20.3072 C   0  0  0  0  0  0  0  0  0  0  0  0
    1.2696  -12.1333   20.1858 C   0  0  0  0  0  0  0  0  0  0  0  0
    1.7543  -12.0284   18.8151 N   0  0  0  0  0  0  0  0  0  0  0  0
    1.3490  -13.0103   17.8778 C   0  0  0  0  0  0  0  0  0  0  0  0
    2.4770  -13.9786   17.4567 C   0  0  0  0  0  0  0  0  0  0  0  0
    3.1639  -14.4716   18.6681 C   0  0  0  0  0  0  0  0  0  0  0  0
    4.2345  -15.5023   18.3087 C   0  0  0  0  0  0  0  0  0  0  0  0
    4.3929  -15.6845   16.9706 O   0  0  0  0  0  0  0  0  0  0  0  0
    3.8503  -13.2540   19.2857 C   0  0  0  0  0  0  0  0  0  0  0  0
    3.2197  -11.9356   18.8491 C   0  0  0  0  0  0  0  0  0  0  0  0
   -1.0219  -13.2609   20.2172 C   0  0  0  0  0  0  0  0  0  0  0  0
   -2.4223  -13.1789   20.4208 C   0  0  0  0  0  0  0  0  0  0  0  0
   -7.4658  -11.1645   22.6085 C   0  0  0  0  0  0  0  0  0  0  0  0
   -8.6809  -11.0790   23.1146 C   0  0  0  0  0  0  0  0  0  0  0  0
   -9.2591  -10.0576   24.0008 C   0  0  0  0  0  0  0  0  0  0  0  0
   -8.4100   -8.9482   24.1602 F   0  0  0  0  0  0  0  0  0  0  0  0
  -10.4738   -9.5260   23.5145 F   0  0  0  0  0  0  0  0  0  0  0  0
   -9.5867  -12.1940   22.7934 C   0  0  0  0  0  0  0  0  0  0  0  0
  -10.8405  -12.5242   23.1076 C   0  0  0  0  0  0  0  0  0  0  0  0
  -11.0903  -13.7140   22.4856 N   0  0  0  0  0  0  0  0  0  0  0  0
  -12.2378  -14.5494   22.4593 C   0  0  1  0  0  0  0  0  0  0  0  0
  -13.4295  -14.1543   23.2893 C   0  0  0  0  0  0  0  0  0  0  0  0
  -13.4622  -13.0675   23.9423 O   0  0  0  0  0  0  0  0  0  0  0  0
  -14.5088  -15.0205   23.2913 N   0  0  0  0  0  0  0  0  0  0  0  0
  -15.6882  -15.1601   23.9787 C   0  0  0  0  0  0  0  0  0  0  0  0
  -16.7298  -16.3256   23.6332 N   0  0  0  0  0  0  0  0  0  0  0  0
  -17.6568  -16.2221   24.5109 C   0  0  0  0  0  0  0  0  0  0  0  0
  -17.7633  -15.2884   25.5566 C   0  0  0  0  0  0  0  0  0  0  0  0
  -16.4073  -14.4927   25.2575 S   0  0  0  0  0  0  0  0  0  0  0  0
  -12.5977  -14.6183   20.9728 C   0  0  0  0  0  0  0  0  0  0  0  0
  -12.8611  -13.4076   20.3432 N   0  0  0  0  0  0  0  0  0  0  0  0
  -13.0279  -13.6468   19.0533 C   0  0  0  0  0  0  0  0  0  0  0  0
  -12.8713  -14.9265   18.8024 N   0  0  0  0  0  0  0  0  0  0  0  0
  -12.6134  -15.5505   20.0261 C   0  0  0  0  0  0  0  0  0  0  0  0
  -12.6991  -17.0380   19.8142 C   0  0  0  0  0  0  0  0  0  0  0  0
  -13.5048  -17.0659   18.4815 C   0  0  0  0  0  0  0  0  0  0  0  0
  -12.7220  -15.9368   17.8158 C   0  0  0  0  0  0  0  0  0  0  0  0
  -11.3748  -16.2822   17.2463 C   0  0  0  0  0  0  0  0  0  0  0  0
  -12.5637  -15.8251   16.3743 C   0  0  0  0  0  0  0  0  0  0  0  0
   -9.9833  -14.0679   21.8201 N   0  0  0  0  0  0  0  0  0  0  0  0
   -9.0053  -13.0963   22.0134 C   0  0  0  0  0  0  0  0  0  0  0  0
  1  2  1  0
  2  3  2  0
  3  4  1  0
  4  5  3  0
  5  6  1  0
  6  7  2  0
  7  8  1  0
  8  9  2  0
  9 10  1  0
 10 11  1  0
 11 12  1  0
 12 13  1  0
 13 14  1  0
 14 15  1  0
 15 16  1  0
 14 17  1  0
 17 18  1  0
  9 19  1  0
 19 20  2  0
  3 21  1  0
 21 22  2  0
 22 23  1  0
 23 24  1  0
 23 25  1  0
 22 26  1  0
 26 27  2  0
 27 28  1  0
 29 28  1  6
 29 30  1  0
 30 31  2  0
 30 32  1  0
 32 33  1  0
 33 34  2  0
 34 35  1  0
 35 36  2  0
 36 37  1  0
 29 38  1  0
 38 39  1  0
 39 40  2  0
 40 41  1  0
 41 42  1  0
 42 43  1  0
 43 44  1  0
 44 45  1  0
 45 46  1  0
 46 47  1  0
 28 48  1  0
 48 49  2  0
 49  2  1  0
 20  6  1  0
 49 26  1  0
 18 11  1  0
 37 33  1  0
 42 38  2  0
 47 45  1  0
 45 41  1  0
M  END
$$$$
