
     RDKit          3D

 49 56  0  0  0  0  0  0  0  0999 V2000
  -18.0903  -17.3892   21.6263 C   0  0  0  0  0  0  0  0  0  0  0  0
  -17.0366  -17.7851   20.6494 C   0  0  0  0  0  0  0  0  0  0  0  0
  -17.3609  -18.9785   19.9347 C   0  0  0  0  0  0  0  0  0  0  0  0
  -18.3909  -19.7053   19.9625 C   0  0  0  0  0  0  0  0  0  0  0  0
  -19.3323  -20.3738   20.0029 C   0  0  0  0  0  0  0  0  0  0  0  0
  -20.6495  -21.3344   20.0799 C   0  0  0  0  0  0  0  0  0  0  0  0
  -21.8653  -21.0235   20.2432 C   0  0  0  0  0  0  0  0  0  0  0  0
  -22.8397  -21.9511   20.0959 C   0  0  0  0  0  0  0  0  0  0  0  0
  -22.6552  -23.2694   19.7528 C   0  0  0  0  0  0  0  0  0  0  0  0
  -23.8050  -24.1306   19.5504 C   0  0  0  0  0  0  0  0  0  0  0  0
  -25.0892  -23.4530   19.6776 N   0  0  0  0  0  0  0  0  0  0  0  0
  -25.5332  -23.0832   20.9711 C   0  0  0  0  0  0  0  0  0  0  0  0
  -26.7212  -23.9237   21.4904 C   0  0  0  0  0  0  0  0  0  0  0  0
  -26.4233  -25.3557   21.2834 C   0  0  0  0  0  0  0  0  0  0  0  0
  -27.5330  -26.2345   21.8611 C   0  0  0  0  0  0  0  0  0  0  0  0
  -28.7318  -25.6022   21.9710 O   0  0  0  0  0  0  0  0  0  0  0  0
  -26.3805  -25.5604   19.7696 C   0  0  0  0  0  0  0  0  0  0  0  0
  -26.1101  -24.2679   19.0061 C   0  0  0  0  0  0  0  0  0  0  0  0
  -21.3015  -23.6253   19.5770 C   0  0  0  0  0  0  0  0  0  0  0  0
  -20.2436  -22.6941   19.7289 C   0  0  0  0  0  0  0  0  0  0  0  0
  -16.2022  -19.3646   19.1248 C   0  0  0  0  0  0  0  0  0  0  0  0
  -15.0128  -18.8127   18.9809 C   0  0  0  0  0  0  0  0  0  0  0  0
  -13.8602  -19.2604   18.1847 C   0  0  0  0  0  0  0  0  0  0  0  0
  -14.1152  -20.4676   17.5103 F   0  0  0  0  0  0  0  0  0  0  0  0
  -13.4951  -18.3431   17.1747 F   0  0  0  0  0  0  0  0  0  0  0  0
  -14.7740  -17.5942   19.7716 C   0  0  0  0  0  0  0  0  0  0  0  0
  -13.7471  -16.7623   19.9538 C   0  0  0  0  0  0  0  0  0  0  0  0
  -14.1740  -15.8157   20.8407 N   0  0  0  0  0  0  0  0  0  0  0  0
  -13.5257  -14.6905   21.4142 C   0  0  1  0  0  0  0  0  0  0  0  0
  -13.2863  -14.6832   22.9001 C   0  0  0  0  0  0  0  0  0  0  0  0
  -12.3315  -15.3288   23.4294 O   0  0  0  0  0  0  0  0  0  0  0  0
  -14.1424  -13.9160   23.6706 N   0  0  0  0  0  0  0  0  0  0  0  0
  -14.2890  -13.5922   24.9960 C   0  0  0  0  0  0  0  0  0  0  0  0
  -15.6638  -13.8451   25.7761 N   0  0  0  0  0  0  0  0  0  0  0  0
  -15.4269  -13.5225   26.9927 C   0  0  0  0  0  0  0  0  0  0  0  0
  -14.2282  -13.0391   27.5460 C   0  0  0  0  0  0  0  0  0  0  0  0
  -13.3617  -13.0565   26.2005 S   0  0  0  0  0  0  0  0  0  0  0  0
  -12.2070  -14.6034   20.6413 C   0  0  0  0  0  0  0  0  0  0  0  0
  -11.0816  -15.1123   21.2785 N   0  0  0  0  0  0  0  0  0  0  0  0
  -10.0735  -15.0665   20.4236 C   0  0  0  0  0  0  0  0  0  0  0  0
  -10.4743  -14.5809   19.2709 N   0  0  0  0  0  0  0  0  0  0  0  0
  -11.8296  -14.2695   19.4118 C   0  0  0  0  0  0  0  0  0  0  0  0
  -12.2474  -13.4668   18.2094 C   0  0  0  0  0  0  0  0  0  0  0  0
  -10.8485  -13.0003   17.7079 C   0  0  0  0  0  0  0  0  0  0  0  0
  -10.1667  -14.3522   17.9037 C   0  0  0  0  0  0  0  0  0  0  0  0
  -10.4178  -15.4022   16.8582 C   0  0  0  0  0  0  0  0  0  0  0  0
   -9.0256  -14.7859   17.1129 C   0  0  0  0  0  0  0  0  0  0  0  0
  -15.4396  -16.1049   21.1697 N   0  0  0  0  0  0  0  0  0  0  0  0
  -15.8368  -17.2519   20.4883 C   0  0  0  0  0  0  0  0  0  0  0  0
  1  2  1  0
  2  3  2  0
  3  4  1  0
  4  5  3  0
  5  6  1  0
  6  7  2  0
  7  8  1  0
  8  9  2  0
  9 10  1  0
 10 11  1  0
 11 12  1  0
 12 13  1  0
 13 14  1  0
 14 15  1  0
 15 16  1  0
 14 17  1  0
 17 18  1  0
  9 19  1  0
 19 20  2  0
  3 21  1  0
 21 22  2  0
 22 23  1  0
 23 24  1  0
 23 25  1  0
 22 26  1  0
 26 27  2  0
 27 28  1  0
 29 28  1  6
 29 30  1  0
 30 31  2  0
 30 32  1  0
 32 33  1  0
 33 34  2  0
 34 35  1  0
 35 36  2  0
 36 37  1  0
 29 38  1  0
 38 39  1  0
 39 40  2  0
 40 41  1  0
 41 42  1  0
 42 43  1  0
 43 44  1  0
 44 45  1  0
 45 46  1  0
 46 47  1  0
 28 48  1  0
 48 49  2  0
 49  2  1  0
 20  6  1  0
 49 26  1  0
 18 11  1  0
 37 33  1  0
 42 38  2  0
 47 45  1  0
 45 41  1  0
M  END
$$$$
