
     RDKit          3D

 49 56  0  0  0  0  0  0  0  0999 V2000
   -7.2406  -14.3964   21.1269 C   0  0  0  0  0  0  0  0  0  0  0  0
   -7.8432  -13.1333   21.6394 C   0  0  0  0  0  0  0  0  0  0  0  0
   -6.8930  -12.0743   21.7640 C   0  0  0  0  0  0  0  0  0  0  0  0
   -5.6674  -12.0239   21.4719 C   0  0  0  0  0  0  0  0  0  0  0  0
   -4.5464  -11.9635   21.1992 C   0  0  0  0  0  0  0  0  0  0  0  0
   -2.9681  -11.8552   20.7977 C   0  0  0  0  0  0  0  0  0  0  0  0
   -2.0843  -12.7598   20.7520 C   0  0  0  0  0  0  0  0  0  0  0  0
   -0.8671  -12.5076   20.2168 C   0  0  0  0  0  0  0  0  0  0  0  0
   -0.4568  -11.3158   19.6681 C   0  0  0  0  0  0  0  0  0  0  0  0
    0.8545  -11.2164   19.0555 C   0  0  0  0  0  0  0  0  0  0  0  0
    1.5007  -12.5006   18.8146 N   0  0  0  0  0  0  0  0  0  0  0  0
    2.9022  -12.5241   18.6089 C   0  0  0  0  0  0  0  0  0  0  0  0
    3.3172  -12.8383   17.1541 C   0  0  0  0  0  0  0  0  0  0  0  0
    2.5334  -11.9865   16.2363 C   0  0  0  0  0  0  0  0  0  0  0  0
    2.9699  -12.1982   14.7863 C   0  0  0  0  0  0  0  0  0  0  0  0
    3.6859  -13.3374   14.5902 O   0  0  0  0  0  0  0  0  0  0  0  0
    1.0818  -12.4428   16.3778 C   0  0  0  0  0  0  0  0  0  0  0  0
    0.8141  -13.1607   17.6966 C   0  0  0  0  0  0  0  0  0  0  0  0
   -1.4343  -10.3001   19.7229 C   0  0  0  0  0  0  0  0  0  0  0  0
   -2.7201  -10.5104   20.2813 C   0  0  0  0  0  0  0  0  0  0  0  0
   -7.5467  -10.9380   22.4191 C   0  0  0  0  0  0  0  0  0  0  0  0
   -8.7765  -10.7763   22.8679 C   0  0  0  0  0  0  0  0  0  0  0  0
   -9.3800   -9.6273   23.5595 C   0  0  0  0  0  0  0  0  0  0  0  0
  -10.6777   -9.3478   23.0956 F   0  0  0  0  0  0  0  0  0  0  0  0
   -9.5207   -9.8296   24.9502 F   0  0  0  0  0  0  0  0  0  0  0  0
   -9.6734  -11.9319   22.7041 C   0  0  0  0  0  0  0  0  0  0  0  0
  -10.9366  -12.2117   23.0297 C   0  0  0  0  0  0  0  0  0  0  0  0
  -11.1689  -13.4873   22.6009 N   0  0  0  0  0  0  0  0  0  0  0  0
  -12.3160  -14.3203   22.6755 C   0  0  1  0  0  0  0  0  0  0  0  0
  -13.5355  -13.7965   23.3853 C   0  0  0  0  0  0  0  0  0  0  0  0
  -13.6390  -12.5816   23.7344 O   0  0  0  0  0  0  0  0  0  0  0  0
  -14.5600  -14.6964   23.6213 N   0  0  0  0  0  0  0  0  0  0  0  0
  -15.7874  -14.6884   24.2349 C   0  0  0  0  0  0  0  0  0  0  0  0
  -16.8973  -15.7950   23.9091 N   0  0  0  0  0  0  0  0  0  0  0  0
  -17.8656  -15.5493   24.7106 C   0  0  0  0  0  0  0  0  0  0  0  0
  -17.9603  -14.5278   25.6719 C   0  0  0  0  0  0  0  0  0  0  0  0
  -16.5277  -13.8655   25.4064 S   0  0  0  0  0  0  0  0  0  0  0  0
  -12.6236  -14.6396   21.2101 C   0  0  0  0  0  0  0  0  0  0  0  0
  -12.8428  -13.5523   20.3728 N   0  0  0  0  0  0  0  0  0  0  0  0
  -12.9676  -14.0079   19.1375 C   0  0  0  0  0  0  0  0  0  0  0  0
  -12.8248  -15.3133   19.1158 N   0  0  0  0  0  0  0  0  0  0  0  0
  -12.6219  -15.7205   20.4374 C   0  0  0  0  0  0  0  0  0  0  0  0
  -12.7262  -17.2212   20.4804 C   0  0  0  0  0  0  0  0  0  0  0  0
  -13.4841  -17.4687   19.1424 C   0  0  0  0  0  0  0  0  0  0  0  0
  -12.6582  -16.4798   18.3235 C   0  0  0  0  0  0  0  0  0  0  0  0
  -11.2978  -16.9331   17.8736 C   0  0  0  0  0  0  0  0  0  0  0  0
  -12.4465  -16.6194   16.8913 C   0  0  0  0  0  0  0  0  0  0  0  0
  -10.0426  -13.9399   22.0351 N   0  0  0  0  0  0  0  0  0  0  0  0
   -9.0698  -12.9463   22.0980 C   0  0  0  0  0  0  0  0  0  0  0  0
  1  2  1  0
  2  3  2  0
  3  4  1  0
  4  5  3  0
  5  6  1  0
  6  7  2  0
  7  8  1  0
  8  9  2  0
  9 10  1  0
 10 11  1  0
 11 12  1  0
 12 13  1  0
 13 14  1  0
 14 15  1  0
 15 16  1  0
 14 17  1  0
 17 18  1  0
  9 19  1  0
 19 20  2  0
  3 21  1  0
 21 22  2  0
 22 23  1  0
 23 24  1  0
 23 25  1  0
 22 26  1  0
 26 27  2  0
 27 28  1  0
 29 28  1  6
 29 30  1  0
 30 31  2  0
 30 32  1  0
 32 33  1  0
 33 34  2  0
 34 35  1  0
 35 36  2  0
 36 37  1  0
 29 38  1  0
 38 39  1  0
 39 40  2  0
 40 41  1  0
 41 42  1  0
 42 43  1  0
 43 44  1  0
 44 45  1  0
 45 46  1  0
 46 47  1  0
 28 48  1  0
 48 49  2  0
 49  2  1  0
 20  6  1  0
 49 26  1  0
 18 11  1  0
 37 33  1  0
 42 38  2  0
 47 45  1  0
 45 41  1  0
M  END
$$$$
