
     RDKit          3D

 49 56  0  0  0  0  0  0  0  0999 V2000
  -14.5318  -15.1354   20.2497 C   0  0  0  0  0  0  0  0  0  0  0  0
  -14.2938  -14.8692   21.6966 C   0  0  0  0  0  0  0  0  0  0  0  0
  -15.2269  -15.5383   22.5461 C   0  0  0  0  0  0  0  0  0  0  0  0
  -16.1657  -16.3360   22.2774 C   0  0  0  0  0  0  0  0  0  0  0  0
  -17.0165  -17.0787   22.0338 C   0  0  0  0  0  0  0  0  0  0  0  0
  -18.1989  -18.1482   21.6848 C   0  0  0  0  0  0  0  0  0  0  0  0
  -18.1805  -19.1432   20.9031 C   0  0  0  0  0  0  0  0  0  0  0  0
  -19.2076  -20.0243   20.8847 C   0  0  0  0  0  0  0  0  0  0  0  0
  -20.3311  -19.9723   21.6751 C   0  0  0  0  0  0  0  0  0  0  0  0
  -21.3149  -21.0361   21.6026 C   0  0  0  0  0  0  0  0  0  0  0  0
  -22.4606  -20.7341   20.7537 N   0  0  0  0  0  0  0  0  0  0  0  0
  -23.6162  -21.5463   20.8635 C   0  0  0  0  0  0  0  0  0  0  0  0
  -23.8510  -22.4703   19.6476 C   0  0  0  0  0  0  0  0  0  0  0  0
  -22.5889  -23.1653   19.3216 C   0  0  0  0  0  0  0  0  0  0  0  0
  -22.7911  -24.1588   18.1772 C   0  0  0  0  0  0  0  0  0  0  0  0
  -23.0328  -23.5694   16.9759 O   0  0  0  0  0  0  0  0  0  0  0  0
  -21.6202  -22.0789   18.8558 C   0  0  0  0  0  0  0  0  0  0  0  0
  -22.0033  -20.6908   19.3586 C   0  0  0  0  0  0  0  0  0  0  0  0
  -20.3623  -18.8611   22.5436 C   0  0  0  0  0  0  0  0  0  0  0  0
  -19.3170  -17.9051   22.5945 C   0  0  0  0  0  0  0  0  0  0  0  0
  -15.0073  -15.0882   23.9234 C   0  0  0  0  0  0  0  0  0  0  0  0
  -14.1474  -14.2294   24.4362 C   0  0  0  0  0  0  0  0  0  0  0  0
  -13.9898  -13.7751   25.8260 C   0  0  0  0  0  0  0  0  0  0  0  0
  -14.9920  -14.2851   26.6701 F   0  0  0  0  0  0  0  0  0  0  0  0
  -12.7711  -14.1876   26.4086 F   0  0  0  0  0  0  0  0  0  0  0  0
  -13.2388  -13.5838   23.4747 C   0  0  0  0  0  0  0  0  0  0  0  0
  -12.2744  -12.6645   23.5441 C   0  0  0  0  0  0  0  0  0  0  0  0
  -11.8187  -12.4907   22.2685 N   0  0  0  0  0  0  0  0  0  0  0  0
  -10.8160  -11.6453   21.7251 C   0  0  1  0  0  0  0  0  0  0  0  0
   -9.8744  -10.9519   22.6726 C   0  0  0  0  0  0  0  0  0  0  0  0
   -9.0369  -11.5937   23.3763 O   0  0  0  0  0  0  0  0  0  0  0  0
   -9.9420   -9.5707   22.7269 N   0  0  0  0  0  0  0  0  0  0  0  0
   -9.4585   -8.5685   23.5299 C   0  0  0  0  0  0  0  0  0  0  0  0
  -10.2150   -8.1257   24.8694 N   0  0  0  0  0  0  0  0  0  0  0  0
   -9.4563   -7.2482   25.4122 C   0  0  0  0  0  0  0  0  0  0  0  0
   -8.2243   -6.7568   24.9464 C   0  0  0  0  0  0  0  0  0  0  0  0
   -8.1444   -7.6390   23.6135 S   0  0  0  0  0  0  0  0  0  0  0  0
  -10.0564  -12.5622   20.7627 C   0  0  0  0  0  0  0  0  0  0  0  0
   -8.9444  -13.2164   21.2795 N   0  0  0  0  0  0  0  0  0  0  0  0
   -8.4951  -14.0486   20.3550 C   0  0  0  0  0  0  0  0  0  0  0  0
   -9.2517  -13.9916   19.2830 N   0  0  0  0  0  0  0  0  0  0  0  0
  -10.2377  -13.0333   19.5337 C   0  0  0  0  0  0  0  0  0  0  0  0
  -10.9482  -12.7505   18.2375 C   0  0  0  0  0  0  0  0  0  0  0  0
   -9.8913  -13.3011   17.2348 C   0  0  0  0  0  0  0  0  0  0  0  0
   -9.5851  -14.5685   18.0291 C   0  0  0  0  0  0  0  0  0  0  0  0
  -10.5725  -15.6965   17.9237 C   0  0  0  0  0  0  0  0  0  0  0  0
   -9.1209  -15.7995   17.4088 C   0  0  0  0  0  0  0  0  0  0  0  0
  -12.5212  -13.3037   21.4691 N   0  0  0  0  0  0  0  0  0  0  0  0
  -13.4423  -14.0122   22.2355 C   0  0  0  0  0  0  0  0  0  0  0  0
  1  2  1  0
  2  3  2  0
  3  4  1  0
  4  5  3  0
  5  6  1  0
  6  7  2  0
  7  8  1  0
  8  9  2  0
  9 10  1  0
 10 11  1  0
 11 12  1  0
 12 13  1  0
 13 14  1  0
 14 15  1  0
 15 16  1  0
 14 17  1  0
 17 18  1  0
  9 19  1  0
 19 20  2  0
  3 21  1  0
 21 22  2  0
 22 23  1  0
 23 24  1  0
 23 25  1  0
 22 26  1  0
 26 27  2  0
 27 28  1  0
 29 28  1  1
 29 30  1  0
 30 31  2  0
 30 32  1  0
 32 33  1  0
 33 34  2  0
 34 35  1  0
 35 36  2  0
 36 37  1  0
 29 38  1  0
 38 39  1  0
 39 40  2  0
 40 41  1  0
 41 42  1  0
 42 43  1  0
 43 44  1  0
 44 45  1  0
 45 46  1  0
 46 47  1  0
 28 48  1  0
 48 49  2  0
 49  2  1  0
 20  6  1  0
 49 26  1  0
 18 11  1  0
 37 33  1  0
 42 38  2  0
 47 45  1  0
 45 41  1  0
M  END
$$$$
