
     RDKit          3D

 49 56  0  0  0  0  0  0  0  0999 V2000
  -10.7600  -14.2366   21.9987 C   0  0  0  0  0  0  0  0  0  0  0  0
  -11.8495  -13.5937   22.7866 C   0  0  0  0  0  0  0  0  0  0  0  0
  -11.4613  -12.3419   23.3542 C   0  0  0  0  0  0  0  0  0  0  0  0
  -10.3877  -11.6874   23.2580 C   0  0  0  0  0  0  0  0  0  0  0  0
   -9.3968  -11.0991   23.1771 C   0  0  0  0  0  0  0  0  0  0  0  0
   -7.9881  -10.2798   23.0875 C   0  0  0  0  0  0  0  0  0  0  0  0
   -6.8983  -10.4813   23.6984 C   0  0  0  0  0  0  0  0  0  0  0  0
   -5.7792   -9.8029   23.3534 C   0  0  0  0  0  0  0  0  0  0  0  0
   -5.6755   -8.8747   22.3447 C   0  0  0  0  0  0  0  0  0  0  0  0
   -4.3863   -8.2860   22.0349 C   0  0  0  0  0  0  0  0  0  0  0  0
   -3.7725   -8.7983   20.8161 N   0  0  0  0  0  0  0  0  0  0  0  0
   -3.8817  -10.1824   20.5344 C   0  0  0  0  0  0  0  0  0  0  0  0
   -2.5560  -10.9605   20.6904 C   0  0  0  0  0  0  0  0  0  0  0  0
   -1.9369  -10.6005   21.9825 C   0  0  0  0  0  0  0  0  0  0  0  0
   -0.6631  -11.4111   22.2236 C   0  0  0  0  0  0  0  0  0  0  0  0
   -0.2790  -12.1592   21.1551 O   0  0  0  0  0  0  0  0  0  0  0  0
   -1.5586   -9.1242   21.8693 C   0  0  0  0  0  0  0  0  0  0  0  0
   -2.3621   -8.3887   20.8016 C   0  0  0  0  0  0  0  0  0  0  0  0
   -6.8887   -8.6389   21.6645 C   0  0  0  0  0  0  0  0  0  0  0  0
   -8.0898   -9.3159   21.9933 C   0  0  0  0  0  0  0  0  0  0  0  0
  -12.5387  -11.8749   24.2310 C   0  0  0  0  0  0  0  0  0  0  0  0
  -13.7070  -12.4042   24.5390 C   0  0  0  0  0  0  0  0  0  0  0  0
  -14.7445  -11.9177   25.4608 C   0  0  0  0  0  0  0  0  0  0  0  0
  -14.5875  -10.5545   25.7678 F   0  0  0  0  0  0  0  0  0  0  0  0
  -16.0501  -12.0296   24.9340 F   0  0  0  0  0  0  0  0  0  0  0  0
  -14.0055  -13.7022   23.9121 C   0  0  0  0  0  0  0  0  0  0  0  0
  -15.0112  -14.5773   23.9648 C   0  0  0  0  0  0  0  0  0  0  0  0
  -14.6642  -15.6093   23.1404 N   0  0  0  0  0  0  0  0  0  0  0  0
  -15.3259  -16.8192   22.8032 C   0  0  1  0  0  0  0  0  0  0  0  0
  -16.7721  -16.9753   23.1896 C   0  0  0  0  0  0  0  0  0  0  0  0
  -17.4635  -15.9992   23.6113 O   0  0  0  0  0  0  0  0  0  0  0  0
  -17.3299  -18.2331   23.0407 N   0  0  0  0  0  0  0  0  0  0  0  0
  -18.5501  -18.8257   23.2480 C   0  0  0  0  0  0  0  0  0  0  0  0
  -18.8564  -20.3157   22.7494 N   0  0  0  0  0  0  0  0  0  0  0  0
  -20.0324  -20.5820   23.1813 C   0  0  0  0  0  0  0  0  0  0  0  0
  -20.8921  -19.7564   23.9269 C   0  0  0  0  0  0  0  0  0  0  0  0
  -19.9222  -18.4870   24.0228 S   0  0  0  0  0  0  0  0  0  0  0  0
  -15.1452  -16.9164   21.2861 C   0  0  0  0  0  0  0  0  0  0  0  0
  -16.1681  -16.3900   20.5062 N   0  0  0  0  0  0  0  0  0  0  0  0
  -15.7876  -16.4490   19.2410 C   0  0  0  0  0  0  0  0  0  0  0  0
  -14.5808  -16.9595   19.1507 N   0  0  0  0  0  0  0  0  0  0  0  0
  -14.1755  -17.2735   20.4509 C   0  0  0  0  0  0  0  0  0  0  0  0
  -12.9227  -18.1022   20.3576 C   0  0  0  0  0  0  0  0  0  0  0  0
  -13.0306  -18.5729   18.8769 C   0  0  0  0  0  0  0  0  0  0  0  0
  -13.4548  -17.2145   18.3240 C   0  0  0  0  0  0  0  0  0  0  0  0
  -12.3750  -16.1869   18.1327 C   0  0  0  0  0  0  0  0  0  0  0  0
  -13.1764  -16.7921   16.9603 C   0  0  0  0  0  0  0  0  0  0  0  0
  -13.4624  -15.3302   22.6195 N   0  0  0  0  0  0  0  0  0  0  0  0
  -13.0260  -14.1035   23.1120 C   0  0  0  0  0  0  0  0  0  0  0  0
  1  2  1  0
  2  3  2  0
  3  4  1  0
  4  5  3  0
  5  6  1  0
  6  7  2  0
  7  8  1  0
  8  9  2  0
  9 10  1  0
 10 11  1  0
 11 12  1  0
 12 13  1  0
 13 14  1  0
 14 15  1  0
 15 16  1  0
 14 17  1  0
 17 18  1  0
  9 19  1  0
 19 20  2  0
  3 21  1  0
 21 22  2  0
 22 23  1  0
 23 24  1  0
 23 25  1  0
 22 26  1  0
 26 27  2  0
 27 28  1  0
 29 28  1  6
 29 30  1  0
 30 31  2  0
 30 32  1  0
 32 33  1  0
 33 34  2  0
 34 35  1  0
 35 36  2  0
 36 37  1  0
 29 38  1  0
 38 39  1  0
 39 40  2  0
 40 41  1  0
 41 42  1  0
 42 43  1  0
 43 44  1  0
 44 45  1  0
 45 46  1  0
 46 47  1  0
 28 48  1  0
 48 49  2  0
 49  2  1  0
 20  6  1  0
 49 26  1  0
 18 11  1  0
 37 33  1  0
 42 38  2  0
 47 45  1  0
 45 41  1  0
M  END
$$$$
