
     RDKit          3D

 49 56  0  0  0  0  0  0  0  0999 V2000
  -12.5855  -14.4460   20.6237 C   0  0  0  0  0  0  0  0  0  0  0  0
  -12.0832  -14.3488   22.0235 C   0  0  0  0  0  0  0  0  0  0  0  0
  -12.9488  -14.9774   22.9699 C   0  0  0  0  0  0  0  0  0  0  0  0
  -14.0179  -15.6264   22.8094 C   0  0  0  0  0  0  0  0  0  0  0  0
  -14.9897  -16.2340   22.6644 C   0  0  0  0  0  0  0  0  0  0  0  0
  -16.3630  -17.0847   22.4318 C   0  0  0  0  0  0  0  0  0  0  0  0
  -16.5509  -18.1463   21.7691 C   0  0  0  0  0  0  0  0  0  0  0  0
  -17.7301  -18.8062   21.8444 C   0  0  0  0  0  0  0  0  0  0  0  0
  -18.8095  -18.4467   22.6160 C   0  0  0  0  0  0  0  0  0  0  0  0
  -19.9825  -19.2992   22.6589 C   0  0  0  0  0  0  0  0  0  0  0  0
  -19.9825  -20.3664   21.6660 N   0  0  0  0  0  0  0  0  0  0  0  0
  -20.0157  -20.0135   20.2943 C   0  0  0  0  0  0  0  0  0  0  0  0
  -21.3601  -20.3246   19.5992 C   0  0  0  0  0  0  0  0  0  0  0  0
  -22.4637  -19.8106   20.4359 C   0  0  0  0  0  0  0  0  0  0  0  0
  -23.8136  -20.0172   19.7483 C   0  0  0  0  0  0  0  0  0  0  0  0
  -23.8174  -21.0301   18.8412 O   0  0  0  0  0  0  0  0  0  0  0  0
  -22.4398  -20.6417   21.7181 C   0  0  0  0  0  0  0  0  0  0  0  0
  -21.0829  -21.2878   21.9781 C   0  0  0  0  0  0  0  0  0  0  0  0
  -18.6102  -17.2595   23.3516 C   0  0  0  0  0  0  0  0  0  0  0  0
  -17.3980  -16.5265   23.3001 C   0  0  0  0  0  0  0  0  0  0  0  0
  -12.4508  -14.6897   24.3178 C   0  0  0  0  0  0  0  0  0  0  0  0
  -11.4111  -13.9940   24.7361 C   0  0  0  0  0  0  0  0  0  0  0  0
  -10.9711  -13.6958   26.1073 C   0  0  0  0  0  0  0  0  0  0  0  0
  -11.6765  -14.4427   27.0674 F   0  0  0  0  0  0  0  0  0  0  0  0
   -9.6099  -13.9994   26.3304 F   0  0  0  0  0  0  0  0  0  0  0  0
  -10.5907  -13.3751   23.6821 C   0  0  0  0  0  0  0  0  0  0  0  0
   -9.5124  -12.5902   23.6512 C   0  0  0  0  0  0  0  0  0  0  0  0
   -9.2494  -12.3528   22.3323 N   0  0  0  0  0  0  0  0  0  0  0  0
   -8.2425  -11.5875   21.6874 C   0  0  1  0  0  0  0  0  0  0  0  0
   -8.1875  -11.6002   20.1834 C   0  0  0  0  0  0  0  0  0  0  0  0
   -9.2054  -11.3420   19.4722 O   0  0  0  0  0  0  0  0  0  0  0  0
   -6.9639  -11.8827   19.6019 N   0  0  0  0  0  0  0  0  0  0  0  0
   -6.4581  -12.0202   18.3337 C   0  0  0  0  0  0  0  0  0  0  0  0
   -6.9450  -13.1912   17.3569 N   0  0  0  0  0  0  0  0  0  0  0  0
   -6.3511  -12.9721   16.2435 C   0  0  0  0  0  0  0  0  0  0  0  0
   -5.4533  -11.9378   15.9263 C   0  0  0  0  0  0  0  0  0  0  0  0
   -5.4692  -11.2104   17.3518 S   0  0  0  0  0  0  0  0  0  0  0  0
   -8.4719  -10.1707   22.2203 C   0  0  0  0  0  0  0  0  0  0  0  0
   -9.4348   -9.4118   21.5659 N   0  0  0  0  0  0  0  0  0  0  0  0
   -9.5828   -8.2789   22.2319 C   0  0  0  0  0  0  0  0  0  0  0  0
   -8.7957   -8.2613   23.2832 N   0  0  0  0  0  0  0  0  0  0  0  0
   -8.0746   -9.4585   23.2693 C   0  0  0  0  0  0  0  0  0  0  0  0
   -6.9797   -9.3511   24.2963 C   0  0  0  0  0  0  0  0  0  0  0  0
   -6.9331   -7.8037   24.4674 C   0  0  0  0  0  0  0  0  0  0  0  0
   -8.4479   -7.6162   24.4994 C   0  0  0  0  0  0  0  0  0  0  0  0
   -9.1500   -7.9423   25.7875 C   0  0  0  0  0  0  0  0  0  0  0  0
   -9.0956   -6.5169   25.1976 C   0  0  0  0  0  0  0  0  0  0  0  0
  -10.1752  -12.9953   21.6087 N   0  0  0  0  0  0  0  0  0  0  0  0
  -11.0478  -13.6562   22.4686 C   0  0  0  0  0  0  0  0  0  0  0  0
  1  2  1  0
  2  3  2  0
  3  4  1  0
  4  5  3  0
  5  6  1  0
  6  7  2  0
  7  8  1  0
  8  9  2  0
  9 10  1  0
 10 11  1  0
 11 12  1  0
 12 13  1  0
 13 14  1  0
 14 15  1  0
 15 16  1  0
 14 17  1  0
 17 18  1  0
  9 19  1  0
 19 20  2  0
  3 21  1  0
 21 22  2  0
 22 23  1  0
 23 24  1  0
 23 25  1  0
 22 26  1  0
 26 27  2  0
 27 28  1  0
 29 28  1  6
 29 30  1  0
 30 31  2  0
 30 32  1  0
 32 33  1  0
 33 34  2  0
 34 35  1  0
 35 36  2  0
 36 37  1  0
 29 38  1  0
 38 39  1  0
 39 40  2  0
 40 41  1  0
 41 42  1  0
 42 43  1  0
 43 44  1  0
 44 45  1  0
 45 46  1  0
 46 47  1  0
 28 48  1  0
 48 49  2  0
 49  2  1  0
 20  6  1  0
 49 26  1  0
 18 11  1  0
 37 33  1  0
 42 38  2  0
 47 45  1  0
 45 41  1  0
M  END
$$$$
