
     RDKit          3D

 49 56  0  0  0  0  0  0  0  0999 V2000
  -14.4366  -14.6723   24.0357 C   0  0  0  0  0  0  0  0  0  0  0  0
  -13.9504  -15.5544   22.9372 C   0  0  0  0  0  0  0  0  0  0  0  0
  -12.7628  -15.0633   22.3139 C   0  0  0  0  0  0  0  0  0  0  0  0
  -12.0512  -14.0542   22.5693 C   0  0  0  0  0  0  0  0  0  0  0  0
  -11.3986  -13.1264   22.7883 C   0  0  0  0  0  0  0  0  0  0  0  0
  -10.4671  -11.8163   23.0708 C   0  0  0  0  0  0  0  0  0  0  0  0
   -9.5937  -11.6265   23.9667 C   0  0  0  0  0  0  0  0  0  0  0  0
   -8.7917  -10.5371   23.9275 C   0  0  0  0  0  0  0  0  0  0  0  0
   -8.8030   -9.5596   22.9610 C   0  0  0  0  0  0  0  0  0  0  0  0
   -7.8254   -8.4887   23.0055 C   0  0  0  0  0  0  0  0  0  0  0  0
   -6.5607   -8.8592   23.6284 N   0  0  0  0  0  0  0  0  0  0  0  0
   -5.6407   -7.8321   23.9535 C   0  0  0  0  0  0  0  0  0  0  0  0
   -4.3835   -7.8092   23.0556 C   0  0  0  0  0  0  0  0  0  0  0  0
   -4.8018   -7.8921   21.6412 C   0  0  0  0  0  0  0  0  0  0  0  0
   -3.5961   -7.7855   20.7070 C   0  0  0  0  0  0  0  0  0  0  0  0
   -2.5447   -8.5637   21.0779 O   0  0  0  0  0  0  0  0  0  0  0  0
   -5.4280   -9.2755   21.4696 C   0  0  0  0  0  0  0  0  0  0  0  0
   -5.9110   -9.8729   22.7873 C   0  0  0  0  0  0  0  0  0  0  0  0
   -9.7798   -9.7604   21.9631 C   0  0  0  0  0  0  0  0  0  0  0  0
  -10.6501  -10.8793   21.9639 C   0  0  0  0  0  0  0  0  0  0  0  0
  -12.4616  -15.9097   21.1560 C   0  0  0  0  0  0  0  0  0  0  0  0
  -13.0804  -16.9627   20.6578 C   0  0  0  0  0  0  0  0  0  0  0  0
  -12.7635  -17.7598   19.4632 C   0  0  0  0  0  0  0  0  0  0  0  0
  -12.4215  -19.0857   19.7828 F   0  0  0  0  0  0  0  0  0  0  0  0
  -13.8476  -17.8646   18.5639 F   0  0  0  0  0  0  0  0  0  0  0  0
  -14.3020  -17.3798   21.3653 C   0  0  0  0  0  0  0  0  0  0  0  0
  -15.2236  -18.3296   21.1970 C   0  0  0  0  0  0  0  0  0  0  0  0
  -16.1261  -18.1711   22.2096 N   0  0  0  0  0  0  0  0  0  0  0  0
  -17.3141  -18.8737   22.5417 C   0  0  1  0  0  0  0  0  0  0  0  0
  -18.3893  -18.1428   23.2999 C   0  0  0  0  0  0  0  0  0  0  0  0
  -18.4441  -16.8761   23.3337 O   0  0  0  0  0  0  0  0  0  0  0  0
  -19.3398  -18.9154   23.9440 N   0  0  0  0  0  0  0  0  0  0  0  0
  -20.4696  -18.7060   24.6940 C   0  0  0  0  0  0  0  0  0  0  0  0
  -21.3256  -19.9239   25.2826 N   0  0  0  0  0  0  0  0  0  0  0  0
  -22.2399  -19.3810   25.9966 C   0  0  0  0  0  0  0  0  0  0  0  0
  -22.4684  -18.0123   26.2224 C   0  0  0  0  0  0  0  0  0  0  0  0
  -21.2575  -17.4552   25.3364 S   0  0  0  0  0  0  0  0  0  0  0  0
  -17.8302  -19.3665   21.1872 C   0  0  0  0  0  0  0  0  0  0  0  0
  -18.2002  -18.3875   20.2727 N   0  0  0  0  0  0  0  0  0  0  0  0
  -18.4976  -18.9870   19.1320 C   0  0  0  0  0  0  0  0  0  0  0  0
  -18.3267  -20.2847   19.2402 N   0  0  0  0  0  0  0  0  0  0  0  0
  -17.9173  -20.5312   20.5537 C   0  0  0  0  0  0  0  0  0  0  0  0
  -17.9761  -22.0170   20.7856 C   0  0  0  0  0  0  0  0  0  0  0  0
  -18.9199  -22.4267   19.6163 C   0  0  0  0  0  0  0  0  0  0  0  0
  -18.2516  -21.5355   18.5722 C   0  0  0  0  0  0  0  0  0  0  0  0
  -16.9633  -22.0288   17.9761 C   0  0  0  0  0  0  0  0  0  0  0  0
  -18.2541  -21.8420   17.1504 C   0  0  0  0  0  0  0  0  0  0  0  0
  -15.7268  -17.1319   22.9541 N   0  0  0  0  0  0  0  0  0  0  0  0
  -14.5525  -16.6115   22.4177 C   0  0  0  0  0  0  0  0  0  0  0  0
  1  2  1  0
  2  3  2  0
  3  4  1  0
  4  5  3  0
  5  6  1  0
  6  7  2  0
  7  8  1  0
  8  9  2  0
  9 10  1  0
 10 11  1  0
 11 12  1  0
 12 13  1  0
 13 14  1  0
 14 15  1  0
 15 16  1  0
 14 17  1  0
 17 18  1  0
  9 19  1  0
 19 20  2  0
  3 21  1  0
 21 22  2  0
 22 23  1  0
 23 24  1  0
 23 25  1  0
 22 26  1  0
 26 27  2  0
 27 28  1  0
 29 28  1  6
 29 30  1  0
 30 31  2  0
 30 32  1  0
 32 33  1  0
 33 34  2  0
 34 35  1  0
 35 36  2  0
 36 37  1  0
 29 38  1  0
 38 39  1  0
 39 40  2  0
 40 41  1  0
 41 42  1  0
 42 43  1  0
 43 44  1  0
 44 45  1  0
 45 46  1  0
 46 47  1  0
 28 48  1  0
 48 49  2  0
 49  2  1  0
 20  6  1  0
 49 26  1  0
 18 11  1  0
 37 33  1  0
 42 38  2  0
 47 45  1  0
 45 41  1  0
M  END
$$$$
