
     RDKit          3D

 49 56  0  0  0  0  0  0  0  0999 V2000
   -7.7980  -14.3332   21.6438 C   0  0  0  0  0  0  0  0  0  0  0  0
   -8.4685  -13.0791   22.0900 C   0  0  0  0  0  0  0  0  0  0  0  0
   -7.5667  -11.9777   22.2075 C   0  0  0  0  0  0  0  0  0  0  0  0
   -6.3348  -11.8867   21.9544 C   0  0  0  0  0  0  0  0  0  0  0  0
   -5.2095  -11.7990   21.7081 C   0  0  0  0  0  0  0  0  0  0  0  0
   -3.6137  -11.6762   21.3883 C   0  0  0  0  0  0  0  0  0  0  0  0
   -2.8472  -12.4856   20.7893 C   0  0  0  0  0  0  0  0  0  0  0  0
   -1.5857  -12.1239   20.4587 C   0  0  0  0  0  0  0  0  0  0  0  0
   -1.0074  -10.8998   20.6969 C   0  0  0  0  0  0  0  0  0  0  0  0
    0.3320  -10.6270   20.2107 C   0  0  0  0  0  0  0  0  0  0  0  0
    0.8442  -11.6239   19.2787 N   0  0  0  0  0  0  0  0  0  0  0  0
    0.9376  -12.9694   19.7121 C   0  0  0  0  0  0  0  0  0  0  0  0
    2.3867  -13.4576   19.9340 C   0  0  0  0  0  0  0  0  0  0  0  0
    3.1126  -12.4561   20.7417 C   0  0  0  0  0  0  0  0  0  0  0  0
    4.5289  -12.9344   21.0627 C   0  0  0  0  0  0  0  0  0  0  0  0
    4.7623  -14.2282   20.7155 O   0  0  0  0  0  0  0  0  0  0  0  0
    3.2088  -11.2045   19.8701 C   0  0  0  0  0  0  0  0  0  0  0  0
    2.1453  -11.1623   18.7775 C   0  0  0  0  0  0  0  0  0  0  0  0
   -1.8534   -9.9948   21.3717 C   0  0  0  0  0  0  0  0  0  0  0  0
   -3.1788  -10.3279   21.7481 C   0  0  0  0  0  0  0  0  0  0  0  0
   -8.2881  -10.8475   22.7990 C   0  0  0  0  0  0  0  0  0  0  0  0
   -9.5381  -10.7216   23.2007 C   0  0  0  0  0  0  0  0  0  0  0  0
  -10.2111   -9.5753   23.8300 C   0  0  0  0  0  0  0  0  0  0  0  0
  -10.8430   -9.9251   25.0364 F   0  0  0  0  0  0  0  0  0  0  0  0
   -9.3240   -8.5294   24.1674 F   0  0  0  0  0  0  0  0  0  0  0  0
  -10.3814  -11.9186   23.0494 C   0  0  0  0  0  0  0  0  0  0  0  0
  -11.6427  -12.2391   23.3430 C   0  0  0  0  0  0  0  0  0  0  0  0
  -11.8083  -13.5375   22.9534 N   0  0  0  0  0  0  0  0  0  0  0  0
  -12.9228  -14.4144   23.0202 C   0  0  1  0  0  0  0  0  0  0  0  0
  -14.1959  -13.9071   23.6424 C   0  0  0  0  0  0  0  0  0  0  0  0
  -14.2753  -12.7534   24.1632 O   0  0  0  0  0  0  0  0  0  0  0  0
  -15.2942  -14.7480   23.6004 N   0  0  0  0  0  0  0  0  0  0  0  0
  -16.4784  -14.8943   24.2780 C   0  0  0  0  0  0  0  0  0  0  0  0
  -17.5770  -15.9683   23.8286 N   0  0  0  0  0  0  0  0  0  0  0  0
  -18.4969  -15.9036   24.7175 C   0  0  0  0  0  0  0  0  0  0  0  0
  -18.5558  -15.0704   25.8483 C   0  0  0  0  0  0  0  0  0  0  0  0
  -17.1621  -14.3177   25.6189 S   0  0  0  0  0  0  0  0  0  0  0  0
  -13.1450  -14.8241   21.5619 C   0  0  0  0  0  0  0  0  0  0  0  0
  -13.1629  -13.7966   20.6263 N   0  0  0  0  0  0  0  0  0  0  0  0
  -13.2394  -14.3416   19.4238 C   0  0  0  0  0  0  0  0  0  0  0  0
  -13.2528  -15.6517   19.5164 N   0  0  0  0  0  0  0  0  0  0  0  0
  -13.2094  -15.9619   20.8786 C   0  0  0  0  0  0  0  0  0  0  0  0
  -13.4959  -17.4317   21.0278 C   0  0  0  0  0  0  0  0  0  0  0  0
  -14.1655  -17.7085   19.6491 C   0  0  0  0  0  0  0  0  0  0  0  0
  -13.1626  -16.8944   18.8354 C   0  0  0  0  0  0  0  0  0  0  0  0
  -11.8340  -17.5356   18.5487 C   0  0  0  0  0  0  0  0  0  0  0  0
  -12.8522  -17.1818   17.4437 C   0  0  0  0  0  0  0  0  0  0  0  0
  -10.6458  -13.9623   22.4418 N   0  0  0  0  0  0  0  0  0  0  0  0
   -9.7167  -12.9274   22.5008 C   0  0  0  0  0  0  0  0  0  0  0  0
  1  2  1  0
  2  3  2  0
  3  4  1  0
  4  5  3  0
  5  6  1  0
  6  7  2  0
  7  8  1  0
  8  9  2  0
  9 10  1  0
 10 11  1  0
 11 12  1  0
 12 13  1  0
 13 14  1  0
 14 15  1  0
 15 16  1  0
 14 17  1  0
 17 18  1  0
  9 19  1  0
 19 20  2  0
  3 21  1  0
 21 22  2  0
 22 23  1  0
 23 24  1  0
 23 25  1  0
 22 26  1  0
 26 27  2  0
 27 28  1  0
 29 28  1  6
 29 30  1  0
 30 31  2  0
 30 32  1  0
 32 33  1  0
 33 34  2  0
 34 35  1  0
 35 36  2  0
 36 37  1  0
 29 38  1  0
 38 39  1  0
 39 40  2  0
 40 41  1  0
 41 42  1  0
 42 43  1  0
 43 44  1  0
 44 45  1  0
 45 46  1  0
 46 47  1  0
 28 48  1  0
 48 49  2  0
 49  2  1  0
 20  6  1  0
 49 26  1  0
 18 11  1  0
 37 33  1  0
 42 38  2  0
 47 45  1  0
 45 41  1  0
M  END
$$$$
