
     RDKit          3D

 49 56  0  0  0  0  0  0  0  0999 V2000
  -11.0475  -14.8026   21.8805 C   0  0  0  0  0  0  0  0  0  0  0  0
  -12.1554  -14.1443   22.6291 C   0  0  0  0  0  0  0  0  0  0  0  0
  -11.7772  -12.8866   23.1904 C   0  0  0  0  0  0  0  0  0  0  0  0
  -10.6983  -12.2382   23.1154 C   0  0  0  0  0  0  0  0  0  0  0  0
   -9.7152  -11.6369   23.0342 C   0  0  0  0  0  0  0  0  0  0  0  0
   -8.3243  -10.7950   22.8919 C   0  0  0  0  0  0  0  0  0  0  0  0
   -7.1641  -11.0788   23.3101 C   0  0  0  0  0  0  0  0  0  0  0  0
   -6.0956  -10.3383   22.9339 C   0  0  0  0  0  0  0  0  0  0  0  0
   -6.1202   -9.2567   22.0858 C   0  0  0  0  0  0  0  0  0  0  0  0
   -4.8793   -8.6080   21.7066 C   0  0  0  0  0  0  0  0  0  0  0  0
   -3.6801   -9.2884   22.1797 N   0  0  0  0  0  0  0  0  0  0  0  0
   -2.4225   -8.6760   21.9556 C   0  0  0  0  0  0  0  0  0  0  0  0
   -1.5570   -9.3912   20.8940 C   0  0  0  0  0  0  0  0  0  0  0  0
   -2.3828   -9.6516   19.6971 C   0  0  0  0  0  0  0  0  0  0  0  0
   -1.5472  -10.2815   18.5823 C   0  0  0  0  0  0  0  0  0  0  0  0
   -1.0094  -11.4855   18.9140 O   0  0  0  0  0  0  0  0  0  0  0  0
   -3.4475  -10.6573   20.1331 C   0  0  0  0  0  0  0  0  0  0  0  0
   -3.6809  -10.6545   21.6404 C   0  0  0  0  0  0  0  0  0  0  0  0
   -7.4117   -8.9294   21.6219 C   0  0  0  0  0  0  0  0  0  0  0  0
   -8.5637   -9.6670   21.9935 C   0  0  0  0  0  0  0  0  0  0  0  0
  -12.8764  -12.4032   24.0306 C   0  0  0  0  0  0  0  0  0  0  0  0
  -14.0552  -12.9232   24.3131 C   0  0  0  0  0  0  0  0  0  0  0  0
  -15.1155  -12.4197   25.1991 C   0  0  0  0  0  0  0  0  0  0  0  0
  -15.3813  -13.2982   26.2644 F   0  0  0  0  0  0  0  0  0  0  0  0
  -14.7893  -11.1881   25.8087 F   0  0  0  0  0  0  0  0  0  0  0  0
  -14.3423  -14.2283   23.6956 C   0  0  0  0  0  0  0  0  0  0  0  0
  -15.3531  -15.0982   23.7321 C   0  0  0  0  0  0  0  0  0  0  0  0
  -14.9883  -16.1428   22.9316 N   0  0  0  0  0  0  0  0  0  0  0  0
  -15.6460  -17.3543   22.5925 C   0  0  1  0  0  0  0  0  0  0  0  0
  -17.0944  -17.5119   22.9700 C   0  0  0  0  0  0  0  0  0  0  0  0
  -17.7913  -16.5349   23.3803 O   0  0  0  0  0  0  0  0  0  0  0  0
  -17.6476  -18.7722   22.8259 N   0  0  0  0  0  0  0  0  0  0  0  0
  -18.8685  -19.3661   23.0254 C   0  0  0  0  0  0  0  0  0  0  0  0
  -19.1379  -20.8909   22.6195 N   0  0  0  0  0  0  0  0  0  0  0  0
  -20.3273  -21.1432   23.0221 C   0  0  0  0  0  0  0  0  0  0  0  0
  -21.2254  -20.2804   23.6742 C   0  0  0  0  0  0  0  0  0  0  0  0
  -20.2744  -18.9940   23.7202 S   0  0  0  0  0  0  0  0  0  0  0  0
  -15.4557  -17.4539   21.0767 C   0  0  0  0  0  0  0  0  0  0  0  0
  -16.5175  -17.0232   20.2901 N   0  0  0  0  0  0  0  0  0  0  0  0
  -16.1315  -17.0652   19.0259 C   0  0  0  0  0  0  0  0  0  0  0  0
  -14.8864  -17.4751   18.9422 N   0  0  0  0  0  0  0  0  0  0  0  0
  -14.4585  -17.7393   20.2462 C   0  0  0  0  0  0  0  0  0  0  0  0
  -13.1413  -18.4624   20.1634 C   0  0  0  0  0  0  0  0  0  0  0  0
  -13.2076  -18.9577   18.6882 C   0  0  0  0  0  0  0  0  0  0  0  0
  -13.7419  -17.6456   18.1192 C   0  0  0  0  0  0  0  0  0  0  0  0
  -12.7506  -16.5345   17.9163 C   0  0  0  0  0  0  0  0  0  0  0  0
  -13.4975  -17.2176   16.7507 C   0  0  0  0  0  0  0  0  0  0  0  0
  -13.7712  -15.8759   22.4406 N   0  0  0  0  0  0  0  0  0  0  0  0
  -13.3429  -14.6446   22.9285 C   0  0  0  0  0  0  0  0  0  0  0  0
  1  2  1  0
  2  3  2  0
  3  4  1  0
  4  5  3  0
  5  6  1  0
  6  7  2  0
  7  8  1  0
  8  9  2  0
  9 10  1  0
 10 11  1  0
 11 12  1  0
 12 13  1  0
 13 14  1  0
 14 15  1  0
 15 16  1  0
 14 17  1  0
 17 18  1  0
  9 19  1  0
 19 20  2  0
  3 21  1  0
 21 22  2  0
 22 23  1  0
 23 24  1  0
 23 25  1  0
 22 26  1  0
 26 27  2  0
 27 28  1  0
 29 28  1  6
 29 30  1  0
 30 31  2  0
 30 32  1  0
 32 33  1  0
 33 34  2  0
 34 35  1  0
 35 36  2  0
 36 37  1  0
 29 38  1  0
 38 39  1  0
 39 40  2  0
 40 41  1  0
 41 42  1  0
 42 43  1  0
 43 44  1  0
 44 45  1  0
 45 46  1  0
 46 47  1  0
 28 48  1  0
 48 49  2  0
 49  2  1  0
 20  6  1  0
 49 26  1  0
 18 11  1  0
 37 33  1  0
 42 38  2  0
 47 45  1  0
 45 41  1  0
M  END
$$$$
