
     RDKit          3D

 49 56  0  0  0  0  0  0  0  0999 V2000
  -14.1294  -16.9758   21.0713 C   0  0  0  0  0  0  0  0  0  0  0  0
  -14.0646  -15.9505   22.1510 C   0  0  0  0  0  0  0  0  0  0  0  0
  -15.1943  -15.9899   23.0241 C   0  0  0  0  0  0  0  0  0  0  0  0
  -16.1887  -16.7646   23.0557 C   0  0  0  0  0  0  0  0  0  0  0  0
  -17.0904  -17.4863   23.0821 C   0  0  0  0  0  0  0  0  0  0  0  0
  -18.3463  -18.5279   23.1224 C   0  0  0  0  0  0  0  0  0  0  0  0
  -19.1939  -18.7332   24.0394 C   0  0  0  0  0  0  0  0  0  0  0  0
  -20.2774  -19.5124   23.8145 C   0  0  0  0  0  0  0  0  0  0  0  0
  -20.5947  -20.1327   22.6296 C   0  0  0  0  0  0  0  0  0  0  0  0
  -21.8369  -20.8730   22.5120 C   0  0  0  0  0  0  0  0  0  0  0  0
  -22.4689  -21.1866   23.7875 N   0  0  0  0  0  0  0  0  0  0  0  0
  -21.7496  -21.9693   24.7240 C   0  0  0  0  0  0  0  0  0  0  0  0
  -22.3018  -23.4017   24.8995 C   0  0  0  0  0  0  0  0  0  0  0  0
  -22.5121  -24.0022   23.5663 C   0  0  0  0  0  0  0  0  0  0  0  0
  -22.9769  -25.4537   23.6871 C   0  0  0  0  0  0  0  0  0  0  0  0
  -23.6318  -25.7248   24.8476 O   0  0  0  0  0  0  0  0  0  0  0  0
  -23.6273  -23.1883   22.9111 C   0  0  0  0  0  0  0  0  0  0  0  0
  -23.7773  -21.7967   23.5171 C   0  0  0  0  0  0  0  0  0  0  0  0
  -19.6499  -19.9149   21.6048 C   0  0  0  0  0  0  0  0  0  0  0  0
  -18.4945  -19.1154   21.7922 C   0  0  0  0  0  0  0  0  0  0  0  0
  -15.1115  -14.8513   23.9430 C   0  0  0  0  0  0  0  0  0  0  0  0
  -14.2205  -13.8858   24.0612 C   0  0  0  0  0  0  0  0  0  0  0  0
  -14.1996  -12.7343   24.9758 C   0  0  0  0  0  0  0  0  0  0  0  0
  -15.2774  -12.7515   25.8787 F   0  0  0  0  0  0  0  0  0  0  0  0
  -13.0419  -12.6898   25.7837 F   0  0  0  0  0  0  0  0  0  0  0  0
  -13.1021  -13.9280   23.1049 C   0  0  0  0  0  0  0  0  0  0  0  0
  -12.0372  -13.1660   22.8496 C   0  0  0  0  0  0  0  0  0  0  0  0
  -11.3846  -13.7575   21.8060 N   0  0  0  0  0  0  0  0  0  0  0  0
  -10.2054  -13.4029   21.0996 C   0  0  1  0  0  0  0  0  0  0  0  0
  -10.3219  -13.0626   19.6382 C   0  0  0  0  0  0  0  0  0  0  0  0
  -10.6272  -11.8969   19.2426 O   0  0  0  0  0  0  0  0  0  0  0  0
  -10.0551  -14.0758   18.7340 N   0  0  0  0  0  0  0  0  0  0  0  0
  -10.0818  -14.2448   17.3725 C   0  0  0  0  0  0  0  0  0  0  0  0
   -9.7878  -15.6654   16.6958 N   0  0  0  0  0  0  0  0  0  0  0  0
   -9.9845  -15.4904   15.4424 C   0  0  0  0  0  0  0  0  0  0  0  0
  -10.3677  -14.3116   14.7790 C   0  0  0  0  0  0  0  0  0  0  0  0
  -10.4611  -13.3723   16.0715 S   0  0  0  0  0  0  0  0  0  0  0  0
   -9.6491  -12.2221   21.8997 C   0  0  0  0  0  0  0  0  0  0  0  0
   -9.4675  -11.0334   21.2029 N   0  0  0  0  0  0  0  0  0  0  0  0
   -9.1041  -10.1038   22.0706 C   0  0  0  0  0  0  0  0  0  0  0  0
   -9.0571  -10.6051   23.2837 N   0  0  0  0  0  0  0  0  0  0  0  0
   -9.3879  -11.9588   23.1756 C   0  0  0  0  0  0  0  0  0  0  0  0
   -9.0806  -12.6169   24.4936 C   0  0  0  0  0  0  0  0  0  0  0  0
   -8.1116  -11.5563   25.0954 C   0  0  0  0  0  0  0  0  0  0  0  0
   -8.9426  -10.3465   24.6751 C   0  0  0  0  0  0  0  0  0  0  0  0
  -10.1470  -10.0201   25.5127 C   0  0  0  0  0  0  0  0  0  0  0  0
   -8.9251   -9.0839   25.3970 C   0  0  0  0  0  0  0  0  0  0  0  0
  -12.0741  -14.8525   21.4605 N   0  0  0  0  0  0  0  0  0  0  0  0
  -13.1858  -14.9715   22.2897 C   0  0  0  0  0  0  0  0  0  0  0  0
  1  2  1  0
  2  3  2  0
  3  4  1  0
  4  5  3  0
  5  6  1  0
  6  7  2  0
  7  8  1  0
  8  9  2  0
  9 10  1  0
 10 11  1  0
 11 12  1  0
 12 13  1  0
 13 14  1  0
 14 15  1  0
 15 16  1  0
 14 17  1  0
 17 18  1  0
  9 19  1  0
 19 20  2  0
  3 21  1  0
 21 22  2  0
 22 23  1  0
 23 24  1  0
 23 25  1  0
 22 26  1  0
 26 27  2  0
 27 28  1  0
 29 28  1  1
 29 30  1  0
 30 31  2  0
 30 32  1  0
 32 33  1  0
 33 34  2  0
 34 35  1  0
 35 36  2  0
 36 37  1  0
 29 38  1  0
 38 39  1  0
 39 40  2  0
 40 41  1  0
 41 42  1  0
 42 43  1  0
 43 44  1  0
 44 45  1  0
 45 46  1  0
 46 47  1  0
 28 48  1  0
 48 49  2  0
 49  2  1  0
 20  6  1  0
 49 26  1  0
 18 11  1  0
 37 33  1  0
 42 38  2  0
 47 45  1  0
 45 41  1  0
M  END
$$$$
