
     RDKit          3D

 49 56  0  0  0  0  0  0  0  0999 V2000
  -14.5958  -14.4679   20.9574 C   0  0  0  0  0  0  0  0  0  0  0  0
  -13.6903  -14.6063   22.1330 C   0  0  0  0  0  0  0  0  0  0  0  0
  -14.1762  -15.5352   23.1031 C   0  0  0  0  0  0  0  0  0  0  0  0
  -15.1982  -16.2738   23.1018 C   0  0  0  0  0  0  0  0  0  0  0  0
  -16.1416  -16.9406   23.0914 C   0  0  0  0  0  0  0  0  0  0  0  0
  -17.4905  -17.8592   23.0726 C   0  0  0  0  0  0  0  0  0  0  0  0
  -18.6659  -17.5726   23.4438 C   0  0  0  0  0  0  0  0  0  0  0  0
  -19.6956  -18.4100   23.1791 C   0  0  0  0  0  0  0  0  0  0  0  0
  -19.6138  -19.6015   22.4983 C   0  0  0  0  0  0  0  0  0  0  0  0
  -20.8201  -20.3567   22.2170 C   0  0  0  0  0  0  0  0  0  0  0  0
  -20.7677  -21.1286   20.9816 N   0  0  0  0  0  0  0  0  0  0  0  0
  -20.8544  -20.4370   19.7482 C   0  0  0  0  0  0  0  0  0  0  0  0
  -22.1887  -20.6543   18.9999 C   0  0  0  0  0  0  0  0  0  0  0  0
  -23.3070  -20.4548   19.9443 C   0  0  0  0  0  0  0  0  0  0  0  0
  -24.6538  -20.5738   19.2304 C   0  0  0  0  0  0  0  0  0  0  0  0
  -24.5842  -21.2113   18.0313 O   0  0  0  0  0  0  0  0  0  0  0  0
  -23.1984  -21.5847   20.9674 C   0  0  0  0  0  0  0  0  0  0  0  0
  -21.7949  -22.1763   21.0475 C   0  0  0  0  0  0  0  0  0  0  0  0
  -18.3050  -19.9314   22.0884 C   0  0  0  0  0  0  0  0  0  0  0  0
  -17.1916  -19.0936   22.3491 C   0  0  0  0  0  0  0  0  0  0  0  0
  -13.3032  -15.4787   24.2788 C   0  0  0  0  0  0  0  0  0  0  0  0
  -12.2320  -14.7542   24.5387 C   0  0  0  0  0  0  0  0  0  0  0  0
  -11.4074  -14.7005   25.7552 C   0  0  0  0  0  0  0  0  0  0  0  0
  -11.7558  -15.7011   26.6796 F   0  0  0  0  0  0  0  0  0  0  0  0
  -10.0319  -14.8957   25.5008 F   0  0  0  0  0  0  0  0  0  0  0  0
  -11.8218  -13.8177   23.4796 C   0  0  0  0  0  0  0  0  0  0  0  0
  -10.8593  -12.9053   23.3345 C   0  0  0  0  0  0  0  0  0  0  0  0
  -11.0355  -12.3567   22.0964 N   0  0  0  0  0  0  0  0  0  0  0  0
  -10.3305  -11.3411   21.3986 C   0  0  1  0  0  0  0  0  0  0  0  0
   -9.3437  -10.5006   22.1633 C   0  0  0  0  0  0  0  0  0  0  0  0
   -8.1005  -10.7520   22.1566 O   0  0  0  0  0  0  0  0  0  0  0  0
   -9.8486   -9.4170   22.8604 N   0  0  0  0  0  0  0  0  0  0  0  0
   -9.3559   -8.4043   23.6444 C   0  0  0  0  0  0  0  0  0  0  0  0
  -10.3211   -7.3292   24.3337 N   0  0  0  0  0  0  0  0  0  0  0  0
   -9.5545   -6.5992   25.0547 C   0  0  0  0  0  0  0  0  0  0  0  0
   -8.1612   -6.6961   25.2150 C   0  0  0  0  0  0  0  0  0  0  0  0
   -7.9324   -7.9524   24.2502 S   0  0  0  0  0  0  0  0  0  0  0  0
   -9.6451  -12.0986   20.2583 C   0  0  0  0  0  0  0  0  0  0  0  0
   -8.3826  -12.6131   20.5283 N   0  0  0  0  0  0  0  0  0  0  0  0
   -8.0038  -13.3321   19.4849 C   0  0  0  0  0  0  0  0  0  0  0  0
   -8.9428  -13.3338   18.5666 N   0  0  0  0  0  0  0  0  0  0  0  0
   -9.9831  -12.5351   19.0497 C   0  0  0  0  0  0  0  0  0  0  0  0
  -10.9471  -12.2970   17.9188 C   0  0  0  0  0  0  0  0  0  0  0  0
  -10.0266  -12.6488   16.7127 C   0  0  0  0  0  0  0  0  0  0  0  0
   -9.4199  -13.8950   17.3527 C   0  0  0  0  0  0  0  0  0  0  0  0
  -10.2551  -15.1444   17.3425 C   0  0  0  0  0  0  0  0  0  0  0  0
   -8.9197  -15.0200   16.5782 C   0  0  0  0  0  0  0  0  0  0  0  0
  -12.0972  -12.9486   21.5342 N   0  0  0  0  0  0  0  0  0  0  0  0
  -12.6146  -13.8912   22.4182 C   0  0  0  0  0  0  0  0  0  0  0  0
  1  2  1  0
  2  3  2  0
  3  4  1  0
  4  5  3  0
  5  6  1  0
  6  7  2  0
  7  8  1  0
  8  9  2  0
  9 10  1  0
 10 11  1  0
 11 12  1  0
 12 13  1  0
 13 14  1  0
 14 15  1  0
 15 16  1  0
 14 17  1  0
 17 18  1  0
  9 19  1  0
 19 20  2  0
  3 21  1  0
 21 22  2  0
 22 23  1  0
 23 24  1  0
 23 25  1  0
 22 26  1  0
 26 27  2  0
 27 28  1  0
 29 28  1  1
 29 30  1  0
 30 31  2  0
 30 32  1  0
 32 33  1  0
 33 34  2  0
 34 35  1  0
 35 36  2  0
 36 37  1  0
 29 38  1  0
 38 39  1  0
 39 40  2  0
 40 41  1  0
 41 42  1  0
 42 43  1  0
 43 44  1  0
 44 45  1  0
 45 46  1  0
 46 47  1  0
 28 48  1  0
 48 49  2  0
 49  2  1  0
 20  6  1  0
 49 26  1  0
 18 11  1  0
 37 33  1  0
 42 38  2  0
 47 45  1  0
 45 41  1  0
M  END
$$$$
