
     RDKit          3D

 49 56  0  0  0  0  0  0  0  0999 V2000
   -7.7464  -14.0150   21.0398 C   0  0  0  0  0  0  0  0  0  0  0  0
   -8.4104  -12.9294   21.8154 C   0  0  0  0  0  0  0  0  0  0  0  0
   -7.5364  -11.8370   22.1035 C   0  0  0  0  0  0  0  0  0  0  0  0
   -6.3375  -11.6277   21.7738 C   0  0  0  0  0  0  0  0  0  0  0  0
   -5.2383  -11.4245   21.4817 C   0  0  0  0  0  0  0  0  0  0  0  0
   -3.6941  -11.1307   21.0425 C   0  0  0  0  0  0  0  0  0  0  0  0
   -2.9019  -10.2266   21.4380 C   0  0  0  0  0  0  0  0  0  0  0  0
   -1.5941  -10.2561   21.0910 C   0  0  0  0  0  0  0  0  0  0  0  0
   -0.9827  -11.2205   20.3256 C   0  0  0  0  0  0  0  0  0  0  0  0
    0.4497  -11.1648   20.1027 C   0  0  0  0  0  0  0  0  0  0  0  0
    0.9082  -11.9482   18.9621 N   0  0  0  0  0  0  0  0  0  0  0  0
    0.6089  -13.3325   18.9286 C   0  0  0  0  0  0  0  0  0  0  0  0
    1.8357  -14.2448   19.1520 C   0  0  0  0  0  0  0  0  0  0  0  0
    2.5839  -13.7635   20.3314 C   0  0  0  0  0  0  0  0  0  0  0  0
    3.7612  -14.6866   20.6466 C   0  0  0  0  0  0  0  0  0  0  0  0
    3.9112  -15.7061   19.7596 O   0  0  0  0  0  0  0  0  0  0  0  0
    3.1331  -12.3900   19.9475 C   0  0  0  0  0  0  0  0  0  0  0  0
    2.3539  -11.7392   18.8092 C   0  0  0  0  0  0  0  0  0  0  0  0
   -1.8615  -12.2276   19.8743 C   0  0  0  0  0  0  0  0  0  0  0  0
   -3.2407  -12.2371   20.2017 C   0  0  0  0  0  0  0  0  0  0  0  0
   -8.2335  -10.9070   22.9962 C   0  0  0  0  0  0  0  0  0  0  0  0
   -9.4432  -10.9394   23.5211 C   0  0  0  0  0  0  0  0  0  0  0  0
  -10.0890   -9.9997   24.4499 C   0  0  0  0  0  0  0  0  0  0  0  0
   -9.3810   -8.7900   24.5620 F   0  0  0  0  0  0  0  0  0  0  0  0
  -11.3910   -9.6295   24.0468 F   0  0  0  0  0  0  0  0  0  0  0  0
  -10.2592  -12.1141   23.1734 C   0  0  0  0  0  0  0  0  0  0  0  0
  -11.4764  -12.5574   23.4926 C   0  0  0  0  0  0  0  0  0  0  0  0
  -11.6375  -13.7422   22.8329 N   0  0  0  0  0  0  0  0  0  0  0  0
  -12.7126  -14.6684   22.7929 C   0  0  1  0  0  0  0  0  0  0  0  0
  -13.9640  -14.3456   23.5644 C   0  0  0  0  0  0  0  0  0  0  0  0
  -14.1375  -13.2196   24.1216 O   0  0  0  0  0  0  0  0  0  0  0  0
  -14.9381  -15.3270   23.6205 N   0  0  0  0  0  0  0  0  0  0  0  0
  -16.1646  -15.4974   24.2119 C   0  0  0  0  0  0  0  0  0  0  0  0
  -17.2061  -16.5938   23.6867 N   0  0  0  0  0  0  0  0  0  0  0  0
  -18.1884  -16.5479   24.5074 C   0  0  0  0  0  0  0  0  0  0  0  0
  -18.3450  -15.7159   25.6298 C   0  0  0  0  0  0  0  0  0  0  0  0
  -16.9541  -14.9349   25.4995 S   0  0  0  0  0  0  0  0  0  0  0  0
  -13.0068  -14.8125   21.2973 C   0  0  0  0  0  0  0  0  0  0  0  0
  -13.5074  -13.6869   20.6540 N   0  0  0  0  0  0  0  0  0  0  0  0
  -13.5819  -13.9558   19.3612 C   0  0  0  0  0  0  0  0  0  0  0  0
  -13.1456  -15.1713   19.1219 N   0  0  0  0  0  0  0  0  0  0  0  0
  -12.7938  -15.7255   20.3558 C   0  0  0  0  0  0  0  0  0  0  0  0
  -12.5501  -17.1962   20.1498 C   0  0  0  0  0  0  0  0  0  0  0  0
  -13.2926  -17.3968   18.7954 C   0  0  0  0  0  0  0  0  0  0  0  0
  -12.7536  -16.1248   18.1455 C   0  0  0  0  0  0  0  0  0  0  0  0
  -11.3480  -16.1706   17.6157 C   0  0  0  0  0  0  0  0  0  0  0  0
  -12.5823  -15.9807   16.7083 C   0  0  0  0  0  0  0  0  0  0  0  0
  -10.5160  -13.9807   22.1409 N   0  0  0  0  0  0  0  0  0  0  0  0
   -9.6182  -12.9386   22.3548 C   0  0  0  0  0  0  0  0  0  0  0  0
  1  2  1  0
  2  3  2  0
  3  4  1  0
  4  5  3  0
  5  6  1  0
  6  7  2  0
  7  8  1  0
  8  9  2  0
  9 10  1  0
 10 11  1  0
 11 12  1  0
 12 13  1  0
 13 14  1  0
 14 15  1  0
 15 16  1  0
 14 17  1  0
 17 18  1  0
  9 19  1  0
 19 20  2  0
  3 21  1  0
 21 22  2  0
 22 23  1  0
 23 24  1  0
 23 25  1  0
 22 26  1  0
 26 27  2  0
 27 28  1  0
 29 28  1  6
 29 30  1  0
 30 31  2  0
 30 32  1  0
 32 33  1  0
 33 34  2  0
 34 35  1  0
 35 36  2  0
 36 37  1  0
 29 38  1  0
 38 39  1  0
 39 40  2  0
 40 41  1  0
 41 42  1  0
 42 43  1  0
 43 44  1  0
 44 45  1  0
 45 46  1  0
 46 47  1  0
 28 48  1  0
 48 49  2  0
 49  2  1  0
 20  6  1  0
 49 26  1  0
 18 11  1  0
 37 33  1  0
 42 38  2  0
 47 45  1  0
 45 41  1  0
M  END
$$$$
