
     RDKit          3D

 49 56  0  0  0  0  0  0  0  0999 V2000
  -10.5142  -14.5323   22.4390 C   0  0  0  0  0  0  0  0  0  0  0  0
  -11.6455  -13.7285   22.9827 C   0  0  0  0  0  0  0  0  0  0  0  0
  -11.2450  -12.4291   23.4198 C   0  0  0  0  0  0  0  0  0  0  0  0
  -10.1256  -11.8502   23.3761 C   0  0  0  0  0  0  0  0  0  0  0  0
   -9.0940  -11.3311   23.3445 C   0  0  0  0  0  0  0  0  0  0  0  0
   -7.6252  -10.6217   23.2890 C   0  0  0  0  0  0  0  0  0  0  0  0
   -6.4899  -11.0951   23.5861 C   0  0  0  0  0  0  0  0  0  0  0  0
   -5.3599  -10.4077   23.2991 C   0  0  0  0  0  0  0  0  0  0  0  0
   -5.2943   -9.1875   22.6694 C   0  0  0  0  0  0  0  0  0  0  0  0
   -4.0031   -8.6065   22.3533 C   0  0  0  0  0  0  0  0  0  0  0  0
   -3.4455   -9.0457   21.0801 N   0  0  0  0  0  0  0  0  0  0  0  0
   -3.5560  -10.4140   20.7297 C   0  0  0  0  0  0  0  0  0  0  0  0
   -2.2172  -11.1839   20.7788 C   0  0  0  0  0  0  0  0  0  0  0  0
   -1.5386  -10.8864   22.0567 C   0  0  0  0  0  0  0  0  0  0  0  0
   -0.2472  -11.6938   22.1914 C   0  0  0  0  0  0  0  0  0  0  0  0
    0.2460  -12.1408   21.0057 O   0  0  0  0  0  0  0  0  0  0  0  0
   -1.1796   -9.4018   22.0051 C   0  0  0  0  0  0  0  0  0  0  0  0
   -2.0413   -8.6196   21.0191 C   0  0  0  0  0  0  0  0  0  0  0  0
   -6.5568   -8.6497   22.3424 C   0  0  0  0  0  0  0  0  0  0  0  0
   -7.7695   -9.3250   22.6298 C   0  0  0  0  0  0  0  0  0  0  0  0
  -12.3871  -11.7871   24.0763 C   0  0  0  0  0  0  0  0  0  0  0  0
  -13.6176  -12.2070   24.2985 C   0  0  0  0  0  0  0  0  0  0  0  0
  -14.7243  -11.5411   25.0018 C   0  0  0  0  0  0  0  0  0  0  0  0
  -15.0651  -12.1954   26.1989 F   0  0  0  0  0  0  0  0  0  0  0  0
  -14.4217  -10.2142   25.3794 F   0  0  0  0  0  0  0  0  0  0  0  0
  -13.9251  -13.5651   23.8211 C   0  0  0  0  0  0  0  0  0  0  0  0
  -14.9870  -14.3718   23.8611 C   0  0  0  0  0  0  0  0  0  0  0  0
  -14.6131  -15.5280   23.2378 N   0  0  0  0  0  0  0  0  0  0  0  0
  -15.3096  -16.7390   22.9856 C   0  0  1  0  0  0  0  0  0  0  0  0
  -16.7518  -16.8355   23.4049 C   0  0  0  0  0  0  0  0  0  0  0  0
  -17.3085  -15.9374   24.1064 O   0  0  0  0  0  0  0  0  0  0  0  0
  -17.4601  -17.9416   22.9691 N   0  0  0  0  0  0  0  0  0  0  0  0
  -18.6669  -18.5365   23.2390 C   0  0  0  0  0  0  0  0  0  0  0  0
  -19.1326  -19.8715   22.4883 N   0  0  0  0  0  0  0  0  0  0  0  0
  -20.2423  -20.1990   23.0375 C   0  0  0  0  0  0  0  0  0  0  0  0
  -20.9281  -19.5389   24.0722 C   0  0  0  0  0  0  0  0  0  0  0  0
  -19.8822  -18.3455   24.2802 S   0  0  0  0  0  0  0  0  0  0  0  0
  -15.1591  -16.9315   21.4742 C   0  0  0  0  0  0  0  0  0  0  0  0
  -16.1393  -16.3536   20.6763 N   0  0  0  0  0  0  0  0  0  0  0  0
  -15.7829  -16.5135   19.4128 C   0  0  0  0  0  0  0  0  0  0  0  0
  -14.6299  -17.1382   19.3393 N   0  0  0  0  0  0  0  0  0  0  0  0
  -14.2379  -17.4204   20.6509 C   0  0  0  0  0  0  0  0  0  0  0  0
  -13.0686  -18.3658   20.5911 C   0  0  0  0  0  0  0  0  0  0  0  0
  -13.2395  -18.9009   19.1384 C   0  0  0  0  0  0  0  0  0  0  0  0
  -13.5435  -17.5396   18.5178 C   0  0  0  0  0  0  0  0  0  0  0  0
  -12.3760  -16.6284   18.2629 C   0  0  0  0  0  0  0  0  0  0  0  0
  -13.2456  -17.2166   17.1313 C   0  0  0  0  0  0  0  0  0  0  0  0
  -13.3405  -15.3876   22.8451 N   0  0  0  0  0  0  0  0  0  0  0  0
  -12.8849  -14.1263   23.2182 C   0  0  0  0  0  0  0  0  0  0  0  0
  1  2  1  0
  2  3  2  0
  3  4  1  0
  4  5  3  0
  5  6  1  0
  6  7  2  0
  7  8  1  0
  8  9  2  0
  9 10  1  0
 10 11  1  0
 11 12  1  0
 12 13  1  0
 13 14  1  0
 14 15  1  0
 15 16  1  0
 14 17  1  0
 17 18  1  0
  9 19  1  0
 19 20  2  0
  3 21  1  0
 21 22  2  0
 22 23  1  0
 23 24  1  0
 23 25  1  0
 22 26  1  0
 26 27  2  0
 27 28  1  0
 29 28  1  6
 29 30  1  0
 30 31  2  0
 30 32  1  0
 32 33  1  0
 33 34  2  0
 34 35  1  0
 35 36  2  0
 36 37  1  0
 29 38  1  0
 38 39  1  0
 39 40  2  0
 40 41  1  0
 41 42  1  0
 42 43  1  0
 43 44  1  0
 44 45  1  0
 45 46  1  0
 46 47  1  0
 28 48  1  0
 48 49  2  0
 49  2  1  0
 20  6  1  0
 49 26  1  0
 18 11  1  0
 37 33  1  0
 42 38  2  0
 47 45  1  0
 45 41  1  0
M  END
$$$$
