
     RDKit          3D

 49 56  0  0  0  0  0  0  0  0999 V2000
  -10.7213  -14.2957   22.1219 C   0  0  0  0  0  0  0  0  0  0  0  0
  -11.8009  -13.5948   22.8733 C   0  0  0  0  0  0  0  0  0  0  0  0
  -11.4077  -12.3018   23.3353 C   0  0  0  0  0  0  0  0  0  0  0  0
  -10.3375  -11.6551   23.1722 C   0  0  0  0  0  0  0  0  0  0  0  0
   -9.3529  -11.0663   23.0369 C   0  0  0  0  0  0  0  0  0  0  0  0
   -7.9484  -10.2588   22.8387 C   0  0  0  0  0  0  0  0  0  0  0  0
   -7.7267   -9.1595   22.2522 C   0  0  0  0  0  0  0  0  0  0  0  0
   -6.5189   -8.5570   22.3511 C   0  0  0  0  0  0  0  0  0  0  0  0
   -5.4424   -9.0180   23.0710 C   0  0  0  0  0  0  0  0  0  0  0  0
   -4.2330   -8.2208   23.1518 C   0  0  0  0  0  0  0  0  0  0  0  0
   -3.5499   -8.0400   21.8769 N   0  0  0  0  0  0  0  0  0  0  0  0
   -3.6174   -9.0825   20.9199 C   0  0  0  0  0  0  0  0  0  0  0  0
   -2.2856   -9.8411   20.7241 C   0  0  0  0  0  0  0  0  0  0  0  0
   -1.7382  -10.2002   22.0484 C   0  0  0  0  0  0  0  0  0  0  0  0
   -0.4619  -11.0299   21.9061 C   0  0  0  0  0  0  0  0  0  0  0  0
   -0.1053  -11.2704   20.6161 O   0  0  0  0  0  0  0  0  0  0  0  0
   -1.3844   -8.8781   22.7283 C   0  0  0  0  0  0  0  0  0  0  0  0
   -2.1489   -7.6925   22.1485 C   0  0  0  0  0  0  0  0  0  0  0  0
   -5.6797  -10.2473   23.7211 C   0  0  0  0  0  0  0  0  0  0  0  0
   -6.9231  -10.9230   23.6413 C   0  0  0  0  0  0  0  0  0  0  0  0
  -12.4733  -11.7694   24.1890 C   0  0  0  0  0  0  0  0  0  0  0  0
  -13.6354  -12.2749   24.5549 C   0  0  0  0  0  0  0  0  0  0  0  0
  -14.6604  -11.7193   25.4514 C   0  0  0  0  0  0  0  0  0  0  0  0
  -14.4699  -10.3473   25.6929 F   0  0  0  0  0  0  0  0  0  0  0  0
  -15.9685  -11.8242   24.9291 F   0  0  0  0  0  0  0  0  0  0  0  0
  -13.9396  -13.6184   24.0360 C   0  0  0  0  0  0  0  0  0  0  0  0
  -14.9419  -14.4883   24.1722 C   0  0  0  0  0  0  0  0  0  0  0  0
  -14.6043  -15.5811   23.4259 N   0  0  0  0  0  0  0  0  0  0  0  0
  -15.2675  -16.8147   23.1944 C   0  0  1  0  0  0  0  0  0  0  0  0
  -16.7070  -16.9430   23.6147 C   0  0  0  0  0  0  0  0  0  0  0  0
  -17.2717  -16.0765   24.3488 O   0  0  0  0  0  0  0  0  0  0  0  0
  -17.4038  -18.0415   23.1427 N   0  0  0  0  0  0  0  0  0  0  0  0
  -18.5921  -18.6731   23.4111 C   0  0  0  0  0  0  0  0  0  0  0  0
  -19.0606  -19.9663   22.5922 N   0  0  0  0  0  0  0  0  0  0  0  0
  -20.1472  -20.3468   23.1532 C   0  0  0  0  0  0  0  0  0  0  0  0
  -20.8102  -19.7649   24.2479 C   0  0  0  0  0  0  0  0  0  0  0  0
  -19.7769  -18.5687   24.4989 S   0  0  0  0  0  0  0  0  0  0  0  0
  -15.1105  -17.0293   21.6867 C   0  0  0  0  0  0  0  0  0  0  0  0
  -16.0681  -16.4343   20.8740 N   0  0  0  0  0  0  0  0  0  0  0  0
  -15.7063  -16.6190   19.6154 C   0  0  0  0  0  0  0  0  0  0  0  0
  -14.5703  -17.2758   19.5588 N   0  0  0  0  0  0  0  0  0  0  0  0
  -14.1966  -17.5530   20.8767 C   0  0  0  0  0  0  0  0  0  0  0  0
  -13.0532  -18.5306   20.8376 C   0  0  0  0  0  0  0  0  0  0  0  0
  -13.2272  -19.0782   19.3899 C   0  0  0  0  0  0  0  0  0  0  0  0
  -13.4889  -17.7166   18.7510 C   0  0  0  0  0  0  0  0  0  0  0  0
  -12.2948  -16.8407   18.4950 C   0  0  0  0  0  0  0  0  0  0  0  0
  -13.1713  -17.4183   17.3632 C   0  0  0  0  0  0  0  0  0  0  0  0
  -13.4112  -15.3416   22.8668 N   0  0  0  0  0  0  0  0  0  0  0  0
  -12.9709  -14.0795   23.2552 C   0  0  0  0  0  0  0  0  0  0  0  0
  1  2  1  0
  2  3  2  0
  3  4  1  0
  4  5  3  0
  5  6  1  0
  6  7  2  0
  7  8  1  0
  8  9  2  0
  9 10  1  0
 10 11  1  0
 11 12  1  0
 12 13  1  0
 13 14  1  0
 14 15  1  0
 15 16  1  0
 14 17  1  0
 17 18  1  0
  9 19  1  0
 19 20  2  0
  3 21  1  0
 21 22  2  0
 22 23  1  0
 23 24  1  0
 23 25  1  0
 22 26  1  0
 26 27  2  0
 27 28  1  0
 29 28  1  6
 29 30  1  0
 30 31  2  0
 30 32  1  0
 32 33  1  0
 33 34  2  0
 34 35  1  0
 35 36  2  0
 36 37  1  0
 29 38  1  0
 38 39  1  0
 39 40  2  0
 40 41  1  0
 41 42  1  0
 42 43  1  0
 43 44  1  0
 44 45  1  0
 45 46  1  0
 46 47  1  0
 28 48  1  0
 48 49  2  0
 49  2  1  0
 20  6  1  0
 49 26  1  0
 18 11  1  0
 37 33  1  0
 42 38  2  0
 47 45  1  0
 45 41  1  0
M  END
$$$$
