
     RDKit          3D

 16 16  0  0  0  0  0  0  0  0999 V2000
   12.7309  -21.1509  -18.6734 C   0  0  0  0  0  0  0  0  0  0  0  0
   11.4530  -20.9422  -19.1923 O   0  0  0  0  0  0  0  0  0  0  0  0
   11.0083  -22.0389  -19.9291 C   0  0  1  0  0  0  0  0  0  0  0  0
   11.0103  -23.1335  -19.1670 O   0  0  0  0  0  0  0  0  0  0  0  0
    9.8875  -23.7316  -18.7760 C   0  0  2  0  0  0  0  0  0  0  0  0
   10.1869  -25.2268  -18.5851 C   0  0  0  0  0  0  0  0  0  0  0  0
   11.0487  -25.3973  -17.0461 S   0  0  0  0  0  6  0  0  0  0  0  0
   10.0652  -25.5644  -15.9243 O   0  0  0  0  0  0  0  0  0  0  0  0
   11.9887  -26.5644  -17.1195 O   0  0  0  0  0  0  0  0  0  0  0  0
   11.9557  -24.0020  -16.7941 O   0  0  0  0  0  0  0  0  0  0  0  0
    8.6795  -23.6254  -19.6240 C   0  0  1  0  0  0  0  0  0  0  0  0
    7.6991  -22.8152  -19.0113 O   0  0  0  0  0  0  0  0  0  0  0  0
    9.0040  -22.9589  -20.9433 C   0  0  2  0  0  0  0  0  0  0  0  0
    9.8330  -23.7376  -21.7193 O   0  0  0  0  0  0  0  0  0  0  0  0
    9.7023  -21.6542  -20.5632 C   0  0  1  0  0  0  0  0  0  0  0  0
    8.9625  -20.9529  -19.6283 O   0  0  0  0  0  0  0  0  0  0  0  0
  1  2  1  0
  3  2  1  1
  3  4  1  0
  4  5  1  0
  5  6  1  6
  6  7  1  0
  7  8  2  0
  7  9  2  0
  7 10  1  0
  5 11  1  0
 11 12  1  1
 11 13  1  0
 13 14  1  6
 13 15  1  0
 15 16  1  1
 15  3  1  0
M  END
$$$$
