
     RDKit          3D

 16 16  0  0  0  0  0  0  0  0999 V2000
   14.7939  -23.4410  -17.6390 C   0  0  0  0  0  0  0  0  0  0  0  0
   13.8280  -22.7975  -18.4130 O   0  0  0  0  0  0  0  0  0  0  0  0
   12.9281  -23.7021  -18.9745 C   0  0  1  0  0  0  0  0  0  0  0  0
   12.4374  -24.5057  -18.0298 O   0  0  0  0  0  0  0  0  0  0  0  0
   11.1682  -24.4476  -17.6334 C   0  0  2  0  0  0  0  0  0  0  0  0
   10.7562  -25.8472  -17.1510 C   0  0  0  0  0  0  0  0  0  0  0  0
   12.0996  -26.4873  -16.1887 S   0  0  0  0  0  6  0  0  0  0  0  0
   12.1703  -25.7738  -14.8698 O   0  0  0  0  0  0  0  0  0  0  0  0
   11.9242  -27.9648  -15.9954 O   0  0  0  0  0  0  0  0  0  0  0  0
   13.5271  -26.2308  -17.0428 O   0  0  0  0  0  0  0  0  0  0  0  0
   10.1347  -23.9841  -18.5857 C   0  0  1  0  0  0  0  0  0  0  0  0
    9.6344  -22.7174  -18.2146 O   0  0  0  0  0  0  0  0  0  0  0  0
   10.7176  -23.8109  -19.9715 C   0  0  2  0  0  0  0  0  0  0  0  0
   11.0964  -25.0152  -20.5211 O   0  0  0  0  0  0  0  0  0  0  0  0
   11.9355  -22.9094  -19.7757 C   0  0  1  0  0  0  0  0  0  0  0  0
   11.6021  -21.7809  -19.0489 O   0  0  0  0  0  0  0  0  0  0  0  0
  1  2  1  0
  3  2  1  1
  3  4  1  0
  4  5  1  0
  5  6  1  6
  6  7  1  0
  7  8  2  0
  7  9  2  0
  7 10  1  0
  5 11  1  0
 11 12  1  1
 11 13  1  0
 13 14  1  1
 13 15  1  0
 15 16  1  1
 15  3  1  0
M  END
$$$$
