
     RDKit          3D

 16 16  0  0  0  0  0  0  0  0999 V2000
   12.4980  -20.8768  -18.4274 C   0  0  0  0  0  0  0  0  0  0  0  0
   11.2981  -20.7357  -19.1247 O   0  0  0  0  0  0  0  0  0  0  0  0
   11.0027  -21.8690  -19.8809 C   0  0  1  0  0  0  0  0  0  0  0  0
   10.9653  -22.9464  -19.0955 O   0  0  0  0  0  0  0  0  0  0  0  0
    9.8341  -23.5948  -18.8286 C   0  0  2  0  0  0  0  0  0  0  0  0
   10.1818  -25.0679  -18.5629 C   0  0  0  0  0  0  0  0  0  0  0  0
   11.1079  -25.1246  -17.0531 S   0  0  0  0  0  6  0  0  0  0  0  0
   11.4283  -23.7310  -16.5962 O   0  0  0  0  0  0  0  0  0  0  0  0
   10.3289  -25.8700  -16.0098 O   0  0  0  0  0  0  0  0  0  0  0  0
   12.5384  -25.9623  -17.3449 O   0  0  0  0  0  0  0  0  0  0  0  0
    8.7360  -23.5696  -19.8202 C   0  0  1  0  0  0  0  0  0  0  0  0
    7.6485  -22.8000  -19.3535 O   0  0  0  0  0  0  0  0  0  0  0  0
    9.1870  -22.9138  -21.1073 C   0  0  2  0  0  0  0  0  0  0  0  0
   10.1432  -23.6633  -21.7553 O   0  0  0  0  0  0  0  0  0  0  0  0
    9.7673  -21.5667  -20.6796 C   0  0  1  0  0  0  0  0  0  0  0  0
    8.8840  -20.8866  -19.8610 O   0  0  0  0  0  0  0  0  0  0  0  0
  1  2  1  0
  3  2  1  1
  3  4  1  0
  4  5  1  0
  5  6  1  6
  6  7  1  0
  7  8  2  0
  7  9  2  0
  7 10  1  0
  5 11  1  0
 11 12  1  1
 11 13  1  0
 13 14  1  1
 13 15  1  0
 15 16  1  1
 15  3  1  0
M  END
$$$$
