
     RDKit          3D

 16 16  0  0  0  0  0  0  0  0999 V2000
   10.7643  -26.3814  -16.5031 C   0  0  0  0  0  0  0  0  0  0  0  0
    9.7395  -25.7658  -17.2220 O   0  0  0  0  0  0  0  0  0  0  0  0
   10.1117  -24.5001  -17.6727 C   0  0  1  0  0  0  0  0  0  0  0  0
   11.4073  -24.4898  -17.9895 O   0  0  0  0  0  0  0  0  0  0  0  0
   11.8329  -24.3770  -19.2455 C   0  0  2  0  0  0  0  0  0  0  0  0
   13.2093  -23.6940  -19.2216 C   0  0  0  0  0  0  0  0  0  0  0  0
   14.4316  -24.9769  -19.1974 S   0  0  0  0  0  6  0  0  0  0  0  0
   15.5592  -24.5927  -18.2839 O   0  0  0  0  0  0  0  0  0  0  0  0
   13.8012  -26.2678  -18.7649 O   0  0  0  0  0  0  0  0  0  0  0  0
   15.0191  -25.1728  -20.7625 O   0  0  0  0  0  0  0  0  0  0  0  0
   10.9960  -23.6552  -20.2296 C   0  0  1  0  0  0  0  0  0  0  0  0
   10.4457  -24.5451  -21.1772 O   0  0  0  0  0  0  0  0  0  0  0  0
    9.8180  -22.9906  -19.5508 C   0  0  2  0  0  0  0  0  0  0  0  0
   10.2178  -21.9743  -18.7121 O   0  0  0  0  0  0  0  0  0  0  0  0
    9.1447  -24.1052  -18.7518 C   0  0  1  0  0  0  0  0  0  0  0  0
    8.9152  -25.2131  -19.5474 O   0  0  0  0  0  0  0  0  0  0  0  0
  1  2  1  0
  3  2  1  6
  3  4  1  0
  4  5  1  0
  5  6  1  1
  6  7  1  0
  7  8  2  0
  7  9  2  0
  7 10  1  0
  5 11  1  0
 11 12  1  6
 11 13  1  0
 13 14  1  1
 13 15  1  0
 15 16  1  6
 15  3  1  0
M  END
$$$$
