
     RDKit          3D

 16 16  0  0  0  0  0  0  0  0999 V2000
   14.7390  -23.9481  -17.9668 C   0  0  0  0  0  0  0  0  0  0  0  0
   13.9165  -23.1481  -18.7602 O   0  0  0  0  0  0  0  0  0  0  0  0
   12.8093  -23.8518  -19.2318 C   0  0  1  0  0  0  0  0  0  0  0  0
   12.2371  -24.5270  -18.2339 O   0  0  0  0  0  0  0  0  0  0  0  0
   11.0412  -24.2031  -17.7481 C   0  0  2  0  0  0  0  0  0  0  0  0
   10.3877  -25.4821  -17.2017 C   0  0  0  0  0  0  0  0  0  0  0  0
   11.6488  -26.3959  -16.3560 S   0  0  0  0  0  6  0  0  0  0  0  0
   12.8666  -26.5134  -17.2260 O   0  0  0  0  0  0  0  0  0  0  0  0
   11.9760  -25.7219  -15.0561 O   0  0  0  0  0  0  0  0  0  0  0  0
   11.0490  -27.9321  -16.0197 O   0  0  0  0  0  0  0  0  0  0  0  0
   10.0558  -23.5447  -18.6342 C   0  0  1  0  0  0  0  0  0  0  0  0
    9.8570  -22.1982  -18.2600 O   0  0  0  0  0  0  0  0  0  0  0  0
   10.5544  -23.5097  -20.0626 C   0  0  2  0  0  0  0  0  0  0  0  0
   10.6339  -24.7717  -20.6076 O   0  0  0  0  0  0  0  0  0  0  0  0
   11.9432  -22.8784  -19.9787 C   0  0  1  0  0  0  0  0  0  0  0  0
   11.9060  -21.6983  -19.2584 O   0  0  0  0  0  0  0  0  0  0  0  0
  1  2  1  0
  3  2  1  1
  3  4  1  0
  4  5  1  0
  5  6  1  6
  6  7  1  0
  7  8  2  0
  7  9  2  0
  7 10  1  0
  5 11  1  0
 11 12  1  1
 11 13  1  0
 13 14  1  1
 13 15  1  0
 15 16  1  1
 15  3  1  0
M  END
$$$$
