
     RDKit          3D

 16 16  0  0  0  0  0  0  0  0999 V2000
   10.4647  -26.1818  -16.7623 C   0  0  0  0  0  0  0  0  0  0  0  0
    9.3474  -25.5298  -17.2842 O   0  0  0  0  0  0  0  0  0  0  0  0
    9.6718  -24.2721  -17.7906 C   0  0  1  0  0  0  0  0  0  0  0  0
   10.9646  -24.2294  -18.1161 O   0  0  0  0  0  0  0  0  0  0  0  0
   11.3795  -24.1552  -19.3784 C   0  0  2  0  0  0  0  0  0  0  0  0
   12.7308  -23.4234  -19.3926 C   0  0  0  0  0  0  0  0  0  0  0  0
   13.9983  -24.6605  -19.3361 S   0  0  0  0  0  6  0  0  0  0  0  0
   15.3351  -24.0371  -19.6156 O   0  0  0  0  0  0  0  0  0  0  0  0
   13.9863  -25.3360  -17.9964 O   0  0  0  0  0  0  0  0  0  0  0  0
   13.6598  -25.8143  -20.5138 O   0  0  0  0  0  0  0  0  0  0  0  0
   10.5125  -23.5061  -20.3867 C   0  0  1  0  0  0  0  0  0  0  0  0
    9.9895  -24.4545  -21.2922 O   0  0  0  0  0  0  0  0  0  0  0  0
    9.3149  -22.8553  -19.7290 C   0  0  2  0  0  0  0  0  0  0  0  0
    9.6824  -21.7907  -18.9369 O   0  0  0  0  0  0  0  0  0  0  0  0
    8.6859  -23.9581  -18.8791 C   0  0  1  0  0  0  0  0  0  0  0  0
    8.4921  -25.1063  -19.6255 O   0  0  0  0  0  0  0  0  0  0  0  0
  1  2  1  0
  3  2  1  6
  3  4  1  0
  4  5  1  0
  5  6  1  1
  6  7  1  0
  7  8  2  0
  7  9  2  0
  7 10  1  0
  5 11  1  0
 11 12  1  6
 11 13  1  0
 13 14  1  1
 13 15  1  0
 15 16  1  6
 15  3  1  0
M  END
$$$$
