
     RDKit          3D

 16 16  0  0  0  0  0  0  0  0999 V2000
   13.1242  -20.5813  -18.2541 C   0  0  0  0  0  0  0  0  0  0  0  0
   11.8906  -20.4216  -18.8856 O   0  0  0  0  0  0  0  0  0  0  0  0
   11.5425  -21.5459  -19.6328 C   0  0  1  0  0  0  0  0  0  0  0  0
   11.2913  -22.5746  -18.8218 O   0  0  0  0  0  0  0  0  0  0  0  0
   10.0679  -23.0735  -18.6617 C   0  0  2  0  0  0  0  0  0  0  0  0
   10.2043  -24.5635  -18.3112 C   0  0  0  0  0  0  0  0  0  0  0  0
   11.5163  -24.7067  -17.1286 S   0  0  0  0  0  6  0  0  0  0  0  0
   11.4940  -23.5319  -16.1943 O   0  0  0  0  0  0  0  0  0  0  0  0
   11.3806  -25.9980  -16.3769 O   0  0  0  0  0  0  0  0  0  0  0  0
   12.9770  -24.7315  -17.9644 O   0  0  0  0  0  0  0  0  0  0  0  0
    9.0931  -22.9653  -19.7696 C   0  0  1  0  0  0  0  0  0  0  0  0
    8.0633  -22.0534  -19.4521 O   0  0  0  0  0  0  0  0  0  0  0  0
    9.7549  -22.4260  -21.0191 C   0  0  2  0  0  0  0  0  0  0  0  0
   10.6768  -23.3108  -21.5320 O   0  0  0  0  0  0  0  0  0  0  0  0
   10.4452  -21.1379  -20.5735 C   0  0  1  0  0  0  0  0  0  0  0  0
    9.5685  -20.3226  -19.8808 O   0  0  0  0  0  0  0  0  0  0  0  0
  1  2  1  0
  3  2  1  1
  3  4  1  0
  4  5  1  0
  5  6  1  6
  6  7  1  0
  7  8  2  0
  7  9  2  0
  7 10  1  0
  5 11  1  0
 11 12  1  1
 11 13  1  0
 13 14  1  1
 13 15  1  0
 15 16  1  1
 15  3  1  0
M  END
$$$$
