
     RDKit          3D

 16 16  0  0  0  0  0  0  0  0999 V2000
   12.9655  -22.4186  -18.7986 C   0  0  0  0  0  0  0  0  0  0  0  0
   11.7829  -21.9736  -19.3898 O   0  0  0  0  0  0  0  0  0  0  0  0
   11.0357  -23.0292  -19.9105 C   0  0  1  0  0  0  0  0  0  0  0  0
   10.8202  -23.9466  -18.9667 O   0  0  0  0  0  0  0  0  0  0  0  0
    9.6136  -24.1685  -18.4507 C   0  0  2  0  0  0  0  0  0  0  0  0
    9.5500  -25.6376  -18.0046 C   0  0  0  0  0  0  0  0  0  0  0  0
   10.8749  -25.8953  -16.8562 S   0  0  0  0  0  6  0  0  0  0  0  0
   12.1814  -25.5095  -17.4869 O   0  0  0  0  0  0  0  0  0  0  0  0
   10.6226  -25.1033  -15.6072 O   0  0  0  0  0  0  0  0  0  0  0  0
   10.9084  -27.5283  -16.4500 O   0  0  0  0  0  0  0  0  0  0  0  0
    8.4149  -23.9030  -19.2769 C   0  0  1  0  0  0  0  0  0  0  0  0
    7.7053  -22.7815  -18.7958 O   0  0  0  0  0  0  0  0  0  0  0  0
    8.8048  -23.5686  -20.7004 C   0  0  2  0  0  0  0  0  0  0  0  0
    9.3650  -24.6490  -21.3444 O   0  0  0  0  0  0  0  0  0  0  0  0
    9.8246  -22.4381  -20.5733 C   0  0  1  0  0  0  0  0  0  0  0  0
    9.3423  -21.4276  -19.7612 O   0  0  0  0  0  0  0  0  0  0  0  0
  1  2  1  0
  3  2  1  1
  3  4  1  0
  4  5  1  0
  5  6  1  6
  6  7  1  0
  7  8  2  0
  7  9  2  0
  7 10  1  0
  5 11  1  0
 11 12  1  1
 11 13  1  0
 13 14  1  1
 13 15  1  0
 15 16  1  1
 15  3  1  0
M  END
$$$$
