
     RDKit          3D

 16 16  0  0  0  0  0  0  0  0999 V2000
   13.4687  -23.0433  -18.7780 C   0  0  0  0  0  0  0  0  0  0  0  0
   12.4073  -22.4448  -19.4572 O   0  0  0  0  0  0  0  0  0  0  0  0
   11.4370  -23.3760  -19.8242 C   0  0  1  0  0  0  0  0  0  0  0  0
   11.0934  -24.1184  -18.7707 O   0  0  0  0  0  0  0  0  0  0  0  0
    9.8964  -24.0289  -18.1958 C   0  0  2  0  0  0  0  0  0  0  0  0
    9.5642  -25.3945  -17.5743 C   0  0  0  0  0  0  0  0  0  0  0  0
   11.0427  -25.9937  -16.8026 S   0  0  0  0  0  6  0  0  0  0  0  0
   10.7744  -27.3121  -16.1366 O   0  0  0  0  0  0  0  0  0  0  0  0
   12.1330  -26.1167  -17.8258 O   0  0  0  0  0  0  0  0  0  0  0  0
   11.5254  -24.8691  -15.6470 O   0  0  0  0  0  0  0  0  0  0  0  0
    8.7324  -23.6173  -19.0115 C   0  0  1  0  0  0  0  0  0  0  0  0
    8.2886  -22.3275  -18.6478 O   0  0  0  0  0  0  0  0  0  0  0  0
    9.1039  -23.5312  -20.4760 C   0  0  2  0  0  0  0  0  0  0  0  0
    9.4009  -24.7686  -21.0018 O   0  0  0  0  0  0  0  0  0  0  0  0
   10.3347  -22.6269  -20.5167 C   0  0  1  0  0  0  0  0  0  0  0  0
   10.1090  -21.4548  -19.8181 O   0  0  0  0  0  0  0  0  0  0  0  0
  1  2  1  0
  3  2  1  1
  3  4  1  0
  4  5  1  0
  5  6  1  6
  6  7  1  0
  7  8  2  0
  7  9  2  0
  7 10  1  0
  5 11  1  0
 11 12  1  1
 11 13  1  0
 13 14  1  1
 13 15  1  0
 15 16  1  1
 15  3  1  0
M  END
$$$$
