
     RDKit          3D

 16 16  0  0  0  0  0  0  0  0999 V2000
   10.9715  -26.3109  -16.5676 C   0  0  0  0  0  0  0  0  0  0  0  0
    9.8916  -25.6523  -17.1557 O   0  0  0  0  0  0  0  0  0  0  0  0
   10.2561  -24.4015  -17.6518 C   0  0  1  0  0  0  0  0  0  0  0  0
   11.5355  -24.4138  -18.0287 O   0  0  0  0  0  0  0  0  0  0  0  0
   11.9032  -24.3340  -19.3053 C   0  0  2  0  0  0  0  0  0  0  0  0
   13.2866  -23.6672  -19.3608 C   0  0  0  0  0  0  0  0  0  0  0  0
   14.4961  -24.9558  -19.2293 S   0  0  0  0  0  6  0  0  0  0  0  0
   15.7545  -24.5513  -19.9409 O   0  0  0  0  0  0  0  0  0  0  0  0
   14.7640  -25.2520  -17.7832 O   0  0  0  0  0  0  0  0  0  0  0  0
   13.8669  -26.3425  -19.9462 O   0  0  0  0  0  0  0  0  0  0  0  0
   11.0292  -23.6242  -20.2655 C   0  0  1  0  0  0  0  0  0  0  0  0
   10.4255  -24.5281  -21.1662 O   0  0  0  0  0  0  0  0  0  0  0  0
    9.8916  -22.9305  -19.5480 C   0  0  2  0  0  0  0  0  0  0  0  0
   10.3413  -21.9008  -18.7521 O   0  0  0  0  0  0  0  0  0  0  0  0
    9.2441  -24.0191  -18.6935 C   0  0  1  0  0  0  0  0  0  0  0  0
    8.9656  -25.1414  -19.4523 O   0  0  0  0  0  0  0  0  0  0  0  0
  1  2  1  0
  3  2  1  6
  3  4  1  0
  4  5  1  0
  5  6  1  1
  6  7  1  0
  7  8  2  0
  7  9  2  0
  7 10  1  0
  5 11  1  0
 11 12  1  6
 11 13  1  0
 13 14  1  1
 13 15  1  0
 15 16  1  6
 15  3  1  0
M  END
$$$$
