
     RDKit          3D

 16 16  0  0  0  0  0  0  0  0999 V2000
   14.4892  -23.3886  -18.2577 C   0  0  0  0  0  0  0  0  0  0  0  0
   13.5244  -22.6610  -18.9548 O   0  0  0  0  0  0  0  0  0  0  0  0
   12.4978  -23.4795  -19.4234 C   0  0  1  0  0  0  0  0  0  0  0  0
   12.1424  -24.3533  -18.4805 O   0  0  0  0  0  0  0  0  0  0  0  0
   10.9666  -24.2931  -17.8599 C   0  0  2  0  0  0  0  0  0  0  0  0
   10.5791  -25.7186  -17.4363 C   0  0  0  0  0  0  0  0  0  0  0  0
   11.6664  -26.1883  -16.1181 S   0  0  0  0  0  6  0  0  0  0  0  0
   12.6358  -25.0779  -15.8336 O   0  0  0  0  0  0  0  0  0  0  0  0
   10.8632  -26.5307  -14.8979 O   0  0  0  0  0  0  0  0  0  0  0  0
   12.5118  -27.5622  -16.5982 O   0  0  0  0  0  0  0  0  0  0  0  0
    9.8056  -23.7091  -18.5674 C   0  0  1  0  0  0  0  0  0  0  0  0
    9.4392  -22.4681  -18.0029 O   0  0  0  0  0  0  0  0  0  0  0  0
   10.1441  -23.4235  -20.0145 C   0  0  2  0  0  0  0  0  0  0  0  0
   10.3626  -24.5816  -20.7266 O   0  0  0  0  0  0  0  0  0  0  0  0
   11.4191  -22.5834  -19.9614 C   0  0  1  0  0  0  0  0  0  0  0  0
   11.2727  -21.5191  -19.0904 O   0  0  0  0  0  0  0  0  0  0  0  0
  1  2  1  0
  3  2  1  1
  3  4  1  0
  4  5  1  0
  5  6  1  6
  6  7  1  0
  7  8  2  0
  7  9  2  0
  7 10  1  0
  5 11  1  0
 11 12  1  1
 11 13  1  0
 13 14  1  6
 13 15  1  0
 15 16  1  1
 15  3  1  0
M  END
$$$$
