
     RDKit          3D

 16 16  0  0  0  0  0  0  0  0999 V2000
    9.9966  -26.0994  -16.7824 C   0  0  0  0  0  0  0  0  0  0  0  0
   11.0984  -25.2440  -16.7693 O   0  0  0  0  0  0  0  0  0  0  0  0
   11.5865  -25.0094  -18.0539 C   0  0  1  0  0  0  0  0  0  0  0  0
   10.7077  -24.2899  -18.7531 O   0  0  0  0  0  0  0  0  0  0  0  0
   10.9417  -23.0290  -19.1090 C   0  0  2  0  0  0  0  0  0  0  0  0
   10.1764  -22.7530  -20.4127 C   0  0  0  0  0  0  0  0  0  0  0  0
    8.7675  -23.8278  -20.4319 S   0  0  0  0  0  6  0  0  0  0  0  0
    7.8740  -23.4801  -21.5871 O   0  0  0  0  0  0  0  0  0  0  0  0
    9.2217  -25.2555  -20.5103 O   0  0  0  0  0  0  0  0  0  0  0  0
    7.9267  -23.6180  -18.9890 O   0  0  0  0  0  0  0  0  0  0  0  0
   12.3381  -22.5827  -19.3108 C   0  0  1  0  0  0  0  0  0  0  0  0
   12.7380  -21.6909  -18.2923 O   0  0  0  0  0  0  0  0  0  0  0  0
   13.2941  -23.7535  -19.2367 C   0  0  2  0  0  0  0  0  0  0  0  0
   13.1160  -24.6263  -20.2867 O   0  0  0  0  0  0  0  0  0  0  0  0
   12.9700  -24.4423  -17.9121 C   0  0  1  0  0  0  0  0  0  0  0  0
   12.9543  -23.5301  -16.8726 O   0  0  0  0  0  0  0  0  0  0  0  0
  1  2  1  0
  3  2  1  1
  3  4  1  0
  4  5  1  0
  5  6  1  6
  6  7  1  0
  7  8  2  0
  7  9  2  0
  7 10  1  0
  5 11  1  0
 11 12  1  1
 11 13  1  0
 13 14  1  6
 13 15  1  0
 15 16  1  1
 15  3  1  0
M  END
$$$$
