
     RDKit          3D

 16 16  0  0  0  0  0  0  0  0999 V2000
   12.9864  -22.6716  -18.7764 C   0  0  0  0  0  0  0  0  0  0  0  0
   11.9301  -22.1809  -19.5441 O   0  0  0  0  0  0  0  0  0  0  0  0
   11.0768  -23.2009  -19.9622 C   0  0  1  0  0  0  0  0  0  0  0  0
   10.7873  -24.0043  -18.9377 O   0  0  0  0  0  0  0  0  0  0  0  0
    9.5725  -24.0600  -18.3968 C   0  0  2  0  0  0  0  0  0  0  0  0
    9.3737  -25.4698  -17.8185 C   0  0  0  0  0  0  0  0  0  0  0  0
   10.8811  -25.9200  -17.0028 S   0  0  0  0  0  6  0  0  0  0  0  0
   10.6996  -27.2186  -16.2718 O   0  0  0  0  0  0  0  0  0  0  0  0
   11.9908  -26.0159  -18.0079 O   0  0  0  0  0  0  0  0  0  0  0  0
   11.2665  -24.7058  -15.9027 O   0  0  0  0  0  0  0  0  0  0  0  0
    8.3933  -23.7541  -19.2368 C   0  0  1  0  0  0  0  0  0  0  0  0
    7.8026  -22.5300  -18.8556 O   0  0  0  0  0  0  0  0  0  0  0  0
    8.7929  -23.5888  -20.6871 C   0  0  2  0  0  0  0  0  0  0  0  0
    9.2365  -24.7724  -21.2333 O   0  0  0  0  0  0  0  0  0  0  0  0
    9.9190  -22.5565  -20.6692 C   0  0  1  0  0  0  0  0  0  0  0  0
    9.5486  -21.4348  -19.9496 O   0  0  0  0  0  0  0  0  0  0  0  0
  1  2  1  0
  3  2  1  1
  3  4  1  0
  4  5  1  0
  5  6  1  6
  6  7  1  0
  7  8  2  0
  7  9  2  0
  7 10  1  0
  5 11  1  0
 11 12  1  1
 11 13  1  0
 13 14  1  1
 13 15  1  0
 15 16  1  1
 15  3  1  0
M  END
$$$$
