
     RDKit          3D

 16 16  0  0  0  0  0  0  0  0999 V2000
   13.3802  -20.5950  -18.2031 C   0  0  0  0  0  0  0  0  0  0  0  0
   12.1359  -20.3265  -18.7738 O   0  0  0  0  0  0  0  0  0  0  0  0
   11.7114  -21.3649  -19.6015 C   0  0  1  0  0  0  0  0  0  0  0  0
   11.5538  -22.4820  -18.8900 O   0  0  0  0  0  0  0  0  0  0  0  0
   10.3569  -23.0146  -18.6555 C   0  0  2  0  0  0  0  0  0  0  0  0
   10.5353  -24.5323  -18.4933 C   0  0  0  0  0  0  0  0  0  0  0  0
   11.5636  -24.7911  -17.0734 S   0  0  0  0  0  6  0  0  0  0  0  0
   13.0094  -24.7674  -17.4770 O   0  0  0  0  0  0  0  0  0  0  0  0
   11.2732  -23.7421  -16.0408 O   0  0  0  0  0  0  0  0  0  0  0  0
   11.1881  -26.2959  -16.4196 O   0  0  0  0  0  0  0  0  0  0  0  0
    9.2660  -22.7976  -19.6315 C   0  0  1  0  0  0  0  0  0  0  0  0
    8.2745  -21.9432  -19.1027 O   0  0  0  0  0  0  0  0  0  0  0  0
    9.7852  -22.1110  -20.8763 C   0  0  2  0  0  0  0  0  0  0  0  0
   10.6480  -22.9183  -21.5833 O   0  0  0  0  0  0  0  0  0  0  0  0
   10.5162  -20.8707  -20.3650 C   0  0  1  0  0  0  0  0  0  0  0  0
    9.7184  -20.1521  -19.4932 O   0  0  0  0  0  0  0  0  0  0  0  0
  1  2  1  0
  3  2  1  1
  3  4  1  0
  4  5  1  0
  5  6  1  6
  6  7  1  0
  7  8  2  0
  7  9  2  0
  7 10  1  0
  5 11  1  0
 11 12  1  1
 11 13  1  0
 13 14  1  1
 13 15  1  0
 15 16  1  1
 15  3  1  0
M  END
$$$$
