
     RDKit          3D

 16 16  0  0  0  0  0  0  0  0999 V2000
   13.1542  -22.6132  -18.9742 C   0  0  0  0  0  0  0  0  0  0  0  0
   11.9993  -22.0797  -19.5464 O   0  0  0  0  0  0  0  0  0  0  0  0
   11.1267  -23.0780  -19.9772 C   0  0  1  0  0  0  0  0  0  0  0  0
   10.8418  -23.9033  -18.9690 O   0  0  0  0  0  0  0  0  0  0  0  0
    9.6344  -23.9571  -18.4115 C   0  0  2  0  0  0  0  0  0  0  0  0
    9.4257  -25.3785  -17.8659 C   0  0  0  0  0  0  0  0  0  0  0  0
   10.8865  -25.8136  -16.9620 S   0  0  0  0  0  6  0  0  0  0  0  0
   10.5681  -26.8843  -15.9590 O   0  0  0  0  0  0  0  0  0  0  0  0
   11.9545  -26.2651  -17.9140 O   0  0  0  0  0  0  0  0  0  0  0  0
   11.4375  -24.4399  -16.1606 O   0  0  0  0  0  0  0  0  0  0  0  0
    8.4471  -23.6152  -19.2258 C   0  0  1  0  0  0  0  0  0  0  0  0
    7.8781  -22.3938  -18.8052 O   0  0  0  0  0  0  0  0  0  0  0  0
    8.8275  -23.4184  -20.6773 C   0  0  2  0  0  0  0  0  0  0  0  0
    9.2476  -24.5932  -21.2597 O   0  0  0  0  0  0  0  0  0  0  0  0
    9.9672  -22.4012  -20.6504 C   0  0  1  0  0  0  0  0  0  0  0  0
    9.6221  -21.2935  -19.8974 O   0  0  0  0  0  0  0  0  0  0  0  0
  1  2  1  0
  3  2  1  1
  3  4  1  0
  4  5  1  0
  5  6  1  6
  6  7  1  0
  7  8  2  0
  7  9  2  0
  7 10  1  0
  5 11  1  0
 11 12  1  1
 11 13  1  0
 13 14  1  1
 13 15  1  0
 15 16  1  1
 15  3  1  0
M  END
$$$$
