
     RDKit          3D

 16 16  0  0  0  0  0  0  0  0999 V2000
   12.9816  -22.4859  -18.8271 C   0  0  0  0  0  0  0  0  0  0  0  0
   11.8621  -22.0109  -19.5105 O   0  0  0  0  0  0  0  0  0  0  0  0
   11.0739  -23.0518  -19.9990 C   0  0  1  0  0  0  0  0  0  0  0  0
   10.8500  -23.9471  -19.0361 O   0  0  0  0  0  0  0  0  0  0  0  0
    9.6478  -24.1245  -18.4935 C   0  0  2  0  0  0  0  0  0  0  0  0
    9.5496  -25.5838  -18.0219 C   0  0  0  0  0  0  0  0  0  0  0  0
   10.8966  -25.8664  -16.9055 S   0  0  0  0  0  6  0  0  0  0  0  0
   12.2026  -25.6582  -17.6158 O   0  0  0  0  0  0  0  0  0  0  0  0
   10.7729  -24.9522  -15.7223 O   0  0  0  0  0  0  0  0  0  0  0  0
   10.8020  -27.4555  -16.3591 O   0  0  0  0  0  0  0  0  0  0  0  0
    8.4415  -23.8367  -19.3008 C   0  0  1  0  0  0  0  0  0  0  0  0
    7.7749  -22.6869  -18.8248 O   0  0  0  0  0  0  0  0  0  0  0  0
    8.8128  -23.5369  -20.7369 C   0  0  2  0  0  0  0  0  0  0  0  0
    9.3281  -24.6438  -21.3735 O   0  0  0  0  0  0  0  0  0  0  0  0
    9.8679  -22.4355  -20.6482 C   0  0  1  0  0  0  0  0  0  0  0  0
    9.4319  -21.3982  -19.8440 O   0  0  0  0  0  0  0  0  0  0  0  0
  1  2  1  0
  3  2  1  1
  3  4  1  0
  4  5  1  0
  5  6  1  6
  6  7  1  0
  7  8  2  0
  7  9  2  0
  7 10  1  0
  5 11  1  0
 11 12  1  1
 11 13  1  0
 13 14  1  1
 13 15  1  0
 15 16  1  1
 15  3  1  0
M  END
$$$$
