
     RDKit          3D

 16 16  0  0  0  0  0  0  0  0999 V2000
   13.2520  -22.7097  -18.9155 C   0  0  0  0  0  0  0  0  0  0  0  0
   12.1268  -22.1546  -19.5252 O   0  0  0  0  0  0  0  0  0  0  0  0
   11.2484  -23.1361  -19.9817 C   0  0  1  0  0  0  0  0  0  0  0  0
   10.9107  -23.9497  -18.9801 O   0  0  0  0  0  0  0  0  0  0  0  0
    9.6837  -23.9746  -18.4651 C   0  0  2  0  0  0  0  0  0  0  0  0
    9.4253  -25.3882  -17.9205 C   0  0  0  0  0  0  0  0  0  0  0  0
   10.8435  -25.8493  -16.9631 S   0  0  0  0  0  6  0  0  0  0  0  0
   10.6586  -27.2315  -16.4072 O   0  0  0  0  0  0  0  0  0  0  0  0
   12.0761  -25.7694  -17.8147 O   0  0  0  0  0  0  0  0  0  0  0  0
   11.0025  -24.7518  -15.6970 O   0  0  0  0  0  0  0  0  0  0  0  0
    8.5332  -23.6117  -19.3220 C   0  0  1  0  0  0  0  0  0  0  0  0
    7.9764  -22.3760  -18.9272 O   0  0  0  0  0  0  0  0  0  0  0  0
    8.9682  -23.4308  -20.7602 C   0  0  2  0  0  0  0  0  0  0  0  0
    9.3828  -24.6176  -21.3220 O   0  0  0  0  0  0  0  0  0  0  0  0
   10.1280  -22.4382  -20.6981 C   0  0  1  0  0  0  0  0  0  0  0  0
    9.7809  -21.3193  -19.9628 O   0  0  0  0  0  0  0  0  0  0  0  0
  1  2  1  0
  3  2  1  1
  3  4  1  0
  4  5  1  0
  5  6  1  6
  6  7  1  0
  7  8  2  0
  7  9  2  0
  7 10  1  0
  5 11  1  0
 11 12  1  1
 11 13  1  0
 13 14  1  1
 13 15  1  0
 15 16  1  1
 15  3  1  0
M  END
$$$$
