
     RDKit          3D

 16 16  0  0  0  0  0  0  0  0999 V2000
   10.5280  -26.2589  -16.6172 C   0  0  0  0  0  0  0  0  0  0  0  0
    9.4513  -25.6552  -17.2670 O   0  0  0  0  0  0  0  0  0  0  0  0
    9.7787  -24.3855  -17.7406 C   0  0  1  0  0  0  0  0  0  0  0  0
   11.0613  -24.3495  -18.1046 O   0  0  0  0  0  0  0  0  0  0  0  0
   11.4384  -24.2380  -19.3760 C   0  0  2  0  0  0  0  0  0  0  0  0
   12.7993  -23.5248  -19.4076 C   0  0  0  0  0  0  0  0  0  0  0  0
   14.0503  -24.7798  -19.3890 S   0  0  0  0  0  6  0  0  0  0  0  0
   13.7041  -25.8624  -20.3699 O   0  0  0  0  0  0  0  0  0  0  0  0
   15.3837  -24.1694  -19.7059 O   0  0  0  0  0  0  0  0  0  0  0  0
   14.1203  -25.4294  -17.8379 O   0  0  0  0  0  0  0  0  0  0  0  0
   10.5506  -23.5431  -20.3344 C   0  0  1  0  0  0  0  0  0  0  0  0
    9.9862  -24.4527  -21.2545 O   0  0  0  0  0  0  0  0  0  0  0  0
    9.3835  -22.8987  -19.6182 C   0  0  2  0  0  0  0  0  0  0  0  0
    9.7908  -21.8668  -18.8025 O   0  0  0  0  0  0  0  0  0  0  0  0
    8.7646  -24.0211  -18.7867 C   0  0  1  0  0  0  0  0  0  0  0  0
    8.5310  -25.1404  -19.5650 O   0  0  0  0  0  0  0  0  0  0  0  0
  1  2  1  0
  3  2  1  6
  3  4  1  0
  4  5  1  0
  5  6  1  1
  6  7  1  0
  7  8  2  0
  7  9  2  0
  7 10  1  0
  5 11  1  0
 11 12  1  6
 11 13  1  0
 13 14  1  1
 13 15  1  0
 15 16  1  6
 15  3  1  0
M  END
$$$$
