
     RDKit          3D

 16 16  0  0  0  0  0  0  0  0999 V2000
   13.3357  -22.3922  -18.7439 C   0  0  0  0  0  0  0  0  0  0  0  0
   12.1517  -21.8985  -19.2918 O   0  0  0  0  0  0  0  0  0  0  0  0
   11.3805  -22.9131  -19.8568 C   0  0  1  0  0  0  0  0  0  0  0  0
   11.1246  -23.8542  -18.9470 O   0  0  0  0  0  0  0  0  0  0  0  0
    9.9049  -24.0562  -18.4543 C   0  0  2  0  0  0  0  0  0  0  0  0
    9.7913  -25.5366  -18.0582 C   0  0  0  0  0  0  0  0  0  0  0  0
   10.9621  -25.8239  -16.7593 S   0  0  0  0  0  6  0  0  0  0  0  0
   11.6270  -24.5340  -16.3748 O   0  0  0  0  0  0  0  0  0  0  0  0
   10.2697  -26.4468  -15.5831 O   0  0  0  0  0  0  0  0  0  0  0  0
   12.1207  -26.9055  -17.3256 O   0  0  0  0  0  0  0  0  0  0  0  0
    8.7263  -23.7274  -19.2864 C   0  0  1  0  0  0  0  0  0  0  0  0
    8.0439  -22.6014  -18.7773 O   0  0  0  0  0  0  0  0  0  0  0  0
    9.1455  -23.3583  -20.6929 C   0  0  2  0  0  0  0  0  0  0  0  0
    9.6820  -24.4334  -21.3653 O   0  0  0  0  0  0  0  0  0  0  0  0
   10.1968  -22.2640  -20.5151 C   0  0  1  0  0  0  0  0  0  0  0  0
    9.7338  -21.2667  -19.6760 O   0  0  0  0  0  0  0  0  0  0  0  0
  1  2  1  0
  3  2  1  1
  3  4  1  0
  4  5  1  0
  5  6  1  6
  6  7  1  0
  7  8  2  0
  7  9  2  0
  7 10  1  0
  5 11  1  0
 11 12  1  1
 11 13  1  0
 13 14  1  1
 13 15  1  0
 15 16  1  1
 15  3  1  0
M  END
$$$$
