
     RDKit          3D

 16 16  0  0  0  0  0  0  0  0999 V2000
   10.8282  -26.2906  -16.7082 C   0  0  0  0  0  0  0  0  0  0  0  0
    9.7330  -25.5810  -17.2012 O   0  0  0  0  0  0  0  0  0  0  0  0
   10.1072  -24.3359  -17.7043 C   0  0  1  0  0  0  0  0  0  0  0  0
   11.3978  -24.3472  -18.0407 O   0  0  0  0  0  0  0  0  0  0  0  0
   11.8049  -24.2844  -19.3062 C   0  0  2  0  0  0  0  0  0  0  0  0
   13.1863  -23.6114  -19.3284 C   0  0  0  0  0  0  0  0  0  0  0  0
   14.3998  -24.9022  -19.2861 S   0  0  0  0  0  6  0  0  0  0  0  0
   14.9767  -25.0175  -17.9050 O   0  0  0  0  0  0  0  0  0  0  0  0
   13.7772  -26.1959  -19.7218 O   0  0  0  0  0  0  0  0  0  0  0  0
   15.6226  -24.5101  -20.3742 O   0  0  0  0  0  0  0  0  0  0  0  0
   10.9582  -23.5933  -20.3038 C   0  0  1  0  0  0  0  0  0  0  0  0
   10.3873  -24.5135  -21.2093 O   0  0  0  0  0  0  0  0  0  0  0  0
    9.7955  -22.8949  -19.6327 C   0  0  2  0  0  0  0  0  0  0  0  0
   10.2151  -21.8513  -18.8386 O   0  0  0  0  0  0  0  0  0  0  0  0
    9.1265  -23.9740  -18.7827 C   0  0  1  0  0  0  0  0  0  0  0  0
    8.8772  -25.1089  -19.5330 O   0  0  0  0  0  0  0  0  0  0  0  0
  1  2  1  0
  3  2  1  6
  3  4  1  0
  4  5  1  0
  5  6  1  1
  6  7  1  0
  7  8  2  0
  7  9  2  0
  7 10  1  0
  5 11  1  0
 11 12  1  6
 11 13  1  0
 13 14  1  1
 13 15  1  0
 15 16  1  6
 15  3  1  0
M  END
$$$$
