
     RDKit          3D

 16 16  0  0  0  0  0  0  0  0999 V2000
   12.4694  -20.9659  -18.2352 C   0  0  0  0  0  0  0  0  0  0  0  0
   11.3995  -20.7420  -19.1018 O   0  0  0  0  0  0  0  0  0  0  0  0
   11.0844  -21.8818  -19.8401 C   0  0  1  0  0  0  0  0  0  0  0  0
   10.9631  -22.9336  -19.0289 O   0  0  0  0  0  0  0  0  0  0  0  0
    9.7924  -23.5221  -18.7953 C   0  0  2  0  0  0  0  0  0  0  0  0
   10.0593  -25.0013  -18.4756 C   0  0  0  0  0  0  0  0  0  0  0  0
   11.1330  -25.0485  -17.0665 S   0  0  0  0  0  6  0  0  0  0  0  0
   10.9378  -23.8155  -16.2326 O   0  0  0  0  0  0  0  0  0  0  0  0
   10.8645  -26.2897  -16.2676 O   0  0  0  0  0  0  0  0  0  0  0  0
   12.7221  -25.1071  -17.6181 O   0  0  0  0  0  0  0  0  0  0  0  0
    8.7404  -23.4752  -19.8348 C   0  0  1  0  0  0  0  0  0  0  0  0
    7.6709  -22.6441  -19.4372 O   0  0  0  0  0  0  0  0  0  0  0  0
    9.2764  -22.8775  -21.1176 C   0  0  2  0  0  0  0  0  0  0  0  0
   10.2235  -23.6878  -21.7026 O   0  0  0  0  0  0  0  0  0  0  0  0
    9.8999  -21.5465  -20.7004 C   0  0  1  0  0  0  0  0  0  0  0  0
    9.0149  -20.8040  -19.9400 O   0  0  0  0  0  0  0  0  0  0  0  0
  1  2  1  0
  3  2  1  1
  3  4  1  0
  4  5  1  0
  5  6  1  6
  6  7  1  0
  7  8  2  0
  7  9  2  0
  7 10  1  0
  5 11  1  0
 11 12  1  1
 11 13  1  0
 13 14  1  1
 13 15  1  0
 15 16  1  1
 15  3  1  0
M  END
$$$$
