
     RDKit          3D

 16 16  0  0  0  0  0  0  0  0999 V2000
   12.2436  -20.9215  -18.1530 C   0  0  0  0  0  0  0  0  0  0  0  0
   11.1658  -20.7125  -19.0137 O   0  0  0  0  0  0  0  0  0  0  0  0
   10.9236  -21.8245  -19.8188 C   0  0  1  0  0  0  0  0  0  0  0  0
   10.9283  -22.9347  -19.0795 O   0  0  0  0  0  0  0  0  0  0  0  0
    9.8245  -23.6415  -18.8483 C   0  0  2  0  0  0  0  0  0  0  0  0
   10.2338  -25.1083  -18.6421 C   0  0  0  0  0  0  0  0  0  0  0  0
   11.0113  -25.2180  -17.0534 S   0  0  0  0  0  6  0  0  0  0  0  0
   10.1394  -24.5796  -16.0114 O   0  0  0  0  0  0  0  0  0  0  0  0
   11.2850  -26.6556  -16.7226 O   0  0  0  0  0  0  0  0  0  0  0  0
   12.4820  -24.4031  -17.1305 O   0  0  0  0  0  0  0  0  0  0  0  0
    8.7318  -23.6214  -19.8458 C   0  0  1  0  0  0  0  0  0  0  0  0
    7.6097  -22.9193  -19.3552 O   0  0  0  0  0  0  0  0  0  0  0  0
    9.1612  -22.8932  -21.1010 C   0  0  2  0  0  0  0  0  0  0  0  0
   10.1521  -23.5732  -21.7730 O   0  0  0  0  0  0  0  0  0  0  0  0
    9.6807  -21.5418  -20.6131 C   0  0  1  0  0  0  0  0  0  0  0  0
    8.7645  -20.9352  -19.7731 O   0  0  0  0  0  0  0  0  0  0  0  0
  1  2  1  0
  3  2  1  1
  3  4  1  0
  4  5  1  0
  5  6  1  6
  6  7  1  0
  7  8  2  0
  7  9  2  0
  7 10  1  0
  5 11  1  0
 11 12  1  1
 11 13  1  0
 13 14  1  1
 13 15  1  0
 15 16  1  1
 15  3  1  0
M  END
$$$$
