
     RDKit          3D

 16 16  0  0  0  0  0  0  0  0999 V2000
   13.0695  -22.5815  -18.9416 C   0  0  0  0  0  0  0  0  0  0  0  0
   11.8918  -22.0881  -19.5034 O   0  0  0  0  0  0  0  0  0  0  0  0
   11.0602  -23.1153  -19.9471 C   0  0  1  0  0  0  0  0  0  0  0  0
   10.8045  -23.9610  -18.9480 O   0  0  0  0  0  0  0  0  0  0  0  0
    9.5984  -24.0675  -18.3956 C   0  0  2  0  0  0  0  0  0  0  0  0
    9.4435  -25.5013  -17.8647 C   0  0  0  0  0  0  0  0  0  0  0  0
   10.8715  -25.8519  -16.8756 S   0  0  0  0  0  6  0  0  0  0  0  0
   11.1189  -24.7245  -15.9157 O   0  0  0  0  0  0  0  0  0  0  0  0
   10.6761  -27.1490  -16.1473 O   0  0  0  0  0  0  0  0  0  0  0  0
   12.1950  -26.0153  -17.9024 O   0  0  0  0  0  0  0  0  0  0  0  0
    8.4013  -23.7641  -19.2108 C   0  0  1  0  0  0  0  0  0  0  0  0
    7.7835  -22.5701  -18.7804 O   0  0  0  0  0  0  0  0  0  0  0  0
    8.7784  -23.5382  -20.6589 C   0  0  2  0  0  0  0  0  0  0  0  0
    9.2460  -24.6899  -21.2512 O   0  0  0  0  0  0  0  0  0  0  0  0
    9.8774  -22.4776  -20.6178 C   0  0  1  0  0  0  0  0  0  0  0  0
    9.4868  -21.3918  -19.8554 O   0  0  0  0  0  0  0  0  0  0  0  0
  1  2  1  0
  3  2  1  1
  3  4  1  0
  4  5  1  0
  5  6  1  6
  6  7  1  0
  7  8  2  0
  7  9  2  0
  7 10  1  0
  5 11  1  0
 11 12  1  1
 11 13  1  0
 13 14  1  1
 13 15  1  0
 15 16  1  1
 15  3  1  0
M  END
$$$$
