
     RDKit          3D

 16 16  0  0  0  0  0  0  0  0999 V2000
   12.8061  -20.7620  -18.6034 C   0  0  0  0  0  0  0  0  0  0  0  0
   11.4624  -20.7575  -18.9782 O   0  0  0  0  0  0  0  0  0  0  0  0
   11.1296  -21.8870  -19.7245 C   0  0  1  0  0  0  0  0  0  0  0  0
   10.9691  -22.9373  -18.9183 O   0  0  0  0  0  0  0  0  0  0  0  0
    9.7803  -23.4963  -18.7043 C   0  0  2  0  0  0  0  0  0  0  0  0
   10.0044  -24.9827  -18.3849 C   0  0  0  0  0  0  0  0  0  0  0  0
   11.3163  -25.0723  -17.1969 S   0  0  0  0  0  6  0  0  0  0  0  0
   11.2912  -26.4049  -16.5060 O   0  0  0  0  0  0  0  0  0  0  0  0
   12.6326  -24.8416  -17.8788 O   0  0  0  0  0  0  0  0  0  0  0  0
   11.0847  -23.8487  -16.0647 O   0  0  0  0  0  0  0  0  0  0  0  0
    8.7458  -23.4199  -19.7596 C   0  0  1  0  0  0  0  0  0  0  0  0
    7.6920  -22.5626  -19.3759 O   0  0  0  0  0  0  0  0  0  0  0  0
    9.3165  -22.8328  -21.0323 C   0  0  2  0  0  0  0  0  0  0  0  0
   10.2515  -23.6656  -21.6052 O   0  0  0  0  0  0  0  0  0  0  0  0
    9.9674  -21.5193  -20.6018 C   0  0  1  0  0  0  0  0  0  0  0  0
    9.0901  -20.7563  -19.8528 O   0  0  0  0  0  0  0  0  0  0  0  0
  1  2  1  0
  3  2  1  1
  3  4  1  0
  4  5  1  0
  5  6  1  6
  6  7  1  0
  7  8  2  0
  7  9  2  0
  7 10  1  0
  5 11  1  0
 11 12  1  1
 11 13  1  0
 13 14  1  1
 13 15  1  0
 15 16  1  1
 15  3  1  0
M  END
$$$$
