6TW7_NZB_holo_aligned_esmfold_protein
     RDKit          3D

 29 32  0  0  0  0  0  0  0  0999 V2000
    9.6037   52.4331   60.3053 C   0  0  0  0  0  0  0  0  0  0  0  0
    8.1874   52.4128   60.7112 N   0  0  0  0  0  0  0  0  0  0  0  0
    7.6092   53.7260   61.0464 C   0  0  0  0  0  0  0  0  0  0  0  0
    7.8489   51.3398   61.6520 C   0  0  0  0  0  0  0  0  0  0  0  0
    7.2915   50.2181   60.8397 C   0  0  0  0  0  0  0  0  0  0  0  0
    8.0038   49.1785   60.2673 N   0  0  0  0  0  0  0  0  0  0  0  0
    7.1680   48.2714   59.6632 N   0  0  0  0  0  0  0  0  0  0  0  0
    5.9675   48.7644   59.8740 C   0  0  0  0  0  0  0  0  0  0  0  0
    4.7483   48.2174   59.5206 C   0  0  0  0  0  0  0  0  0  0  0  0
    3.5590   48.8778   59.8572 C   0  0  0  0  0  0  0  0  0  0  0  0
    3.5227   50.1473   60.5058 C   0  0  0  0  0  0  0  0  0  0  0  0
    2.2335   50.9567   60.7300 C   0  0  0  0  0  0  0  0  0  0  0  0
    2.4683   52.4190   61.0923 C   0  0  0  0  0  0  0  0  0  0  0  0
    1.4700   53.5426   61.0618 C   0  0  0  0  0  0  0  0  0  0  0  0
    0.0358   53.3254   60.4294 C   0  0  0  0  0  0  0  0  0  0  0  0
   -0.7657   54.3215   59.9776 F   0  0  0  0  0  0  0  0  0  0  0  0
   -0.3328   51.2925   60.1030 C   0  0  0  0  0  0  0  0  0  0  0  0
    0.8493   50.3724   60.3551 C   0  0  0  0  0  0  0  0  0  0  0  0
    0.6659   49.0064   60.2601 O   0  0  0  0  0  0  0  0  0  0  0  0
   -0.2333   48.4941   59.2524 C   0  0  0  0  0  0  0  0  0  0  0  0
   -0.2890   46.9590   59.2482 C   0  0  0  0  0  0  0  0  0  0  0  0
    0.9724   46.2534   58.7954 C   0  0  0  0  0  0  0  0  0  0  0  0
    1.9263   45.8181   59.7208 C   0  0  0  0  0  0  0  0  0  0  0  0
    3.0432   45.1276   59.2519 C   0  0  0  0  0  0  0  0  0  0  0  0
    3.1840   44.8855   57.8799 C   0  0  0  0  0  0  0  0  0  0  0  0
    2.2603   45.2876   56.9833 N   0  0  0  0  0  0  0  0  0  0  0  0
    1.1712   45.9487   57.4370 C   0  0  0  0  0  0  0  0  0  0  0  0
    4.8104   50.6666   60.8340 C   0  0  0  0  0  0  0  0  0  0  0  0
    5.9869   49.9662   60.5559 C   0  0  0  0  0  0  0  0  0  0  0  0
  1  2  1  0
  2  3  1  0
  2  4  1  0
  4  5  1  0
  5  6  1  0
  6  7  1  0
  7  8  2  0
  8  9  1  0
  9 10  2  0
 10 11  1  0
 11 12  1  0
 12 13  2  0
 13 14  1  0
 14 15  2  0
 15 16  1  0
 15 17  1  0
 17 18  2  0
 18 19  1  0
 19 20  1  0
 20 21  1  0
 21 22  1  0
 22 23  2  0
 23 24  1  0
 24 25  2  0
 25 26  1  0
 26 27  2  0
 11 28  2  0
 28 29  1  0
 29  5  2  0
 29  8  1  0
 18 12  1  0
 27 22  1  0
M  END
