
     RDKit          3D

 29 32  0  0  0  0  0  0  0  0999 V2000
    0.1042   44.0471   62.4817 C   0  0  0  0  0  0  0  0  0  0  0  0
    0.0451   44.5288   61.1291 N   0  0  0  0  0  0  0  0  0  0  0  0
    1.1528   44.1567   60.3071 C   0  0  0  0  0  0  0  0  0  0  0  0
   -0.3315   45.9106   61.0407 C   0  0  0  0  0  0  0  0  0  0  0  0
   -0.5490   46.2502   59.5966 C   0  0  0  0  0  0  0  0  0  0  0  0
   -0.9420   45.4142   58.6179 N   0  0  0  0  0  0  0  0  0  0  0  0
   -1.0053   46.1234   57.5073 N   0  0  0  0  0  0  0  0  0  0  0  0
   -0.6596   47.4131   57.7422 C   0  0  0  0  0  0  0  0  0  0  0  0
   -0.5593   48.5433   56.9564 C   0  0  0  0  0  0  0  0  0  0  0  0
   -0.1695   49.7559   57.4940 C   0  0  0  0  0  0  0  0  0  0  0  0
    0.1327   49.8791   58.8340 C   0  0  0  0  0  0  0  0  0  0  0  0
    0.5500   51.1488   59.4404 C   0  0  0  0  0  0  0  0  0  0  0  0
   -0.2362   52.2722   59.4126 C   0  0  0  0  0  0  0  0  0  0  0  0
    0.1315   53.4769   59.9739 C   0  0  0  0  0  0  0  0  0  0  0  0
    1.3523   53.5873   60.6051 C   0  0  0  0  0  0  0  0  0  0  0  0
    1.7234   54.7557   61.1561 F   0  0  0  0  0  0  0  0  0  0  0  0
    2.1569   52.4542   60.6391 C   0  0  0  0  0  0  0  0  0  0  0  0
    1.7967   51.2431   60.0789 C   0  0  0  0  0  0  0  0  0  0  0  0
    2.5513   50.1151   60.0918 O   0  0  0  0  0  0  0  0  0  0  0  0
    3.8596   49.8628   60.4082 C   0  0  0  0  0  0  0  0  0  0  0  0
    4.3557   48.4675   60.2511 C   0  0  0  0  0  0  0  0  0  0  0  0
    3.8303   47.5543   61.3064 C   0  0  0  0  0  0  0  0  0  0  0  0
    3.9934   46.1807   61.1842 C   0  0  0  0  0  0  0  0  0  0  0  0
    3.5223   45.3106   62.1382 C   0  0  0  0  0  0  0  0  0  0  0  0
    2.8722   45.8062   63.2438 C   0  0  0  0  0  0  0  0  0  0  0  0
    2.7288   47.1560   63.3336 N   0  0  0  0  0  0  0  0  0  0  0  0
    3.1747   48.0143   62.4265 C   0  0  0  0  0  0  0  0  0  0  0  0
    0.0297   48.7486   59.6068 C   0  0  0  0  0  0  0  0  0  0  0  0
   -0.3613   47.5173   59.0845 C   0  0  0  0  0  0  0  0  0  0  0  0
  1  2  1  0
  2  3  1  0
  2  4  1  0
  4  5  1  0
  5  6  1  0
  6  7  1  0
  7  8  2  0
  8  9  1  0
  9 10  2  0
 10 11  1  0
 11 12  1  0
 12 13  2  0
 13 14  1  0
 14 15  2  0
 15 16  1  0
 15 17  1  0
 17 18  2  0
 18 19  1  0
 19 20  1  0
 20 21  1  0
 21 22  1  0
 22 23  2  0
 23 24  1  0
 24 25  2  0
 25 26  1  0
 26 27  2  0
 11 28  2  0
 28 29  1  0
 29  5  2  0
 29  8  1  0
 18 12  1  0
 27 22  1  0
M  END
$$$$
