
     RDKit          3D

 29 32  0  0  0  0  0  0  0  0999 V2000
    0.7636   43.6718   61.8280 C   0  0  0  0  0  0  0  0  0  0  0  0
    0.6643   44.2940   60.5366 N   0  0  0  0  0  0  0  0  0  0  0  0
    1.8009   44.1120   59.6902 C   0  0  0  0  0  0  0  0  0  0  0  0
    0.1697   45.6395   60.5976 C   0  0  0  0  0  0  0  0  0  0  0  0
   -0.1932   46.0736   59.2091 C   0  0  0  0  0  0  0  0  0  0  0  0
   -0.6984   45.3057   58.2261 N   0  0  0  0  0  0  0  0  0  0  0  0
   -0.8678   46.0858   57.1757 N   0  0  0  0  0  0  0  0  0  0  0  0
   -0.4812   47.3550   57.4544 C   0  0  0  0  0  0  0  0  0  0  0  0
   -0.4478   48.5330   56.7361 C   0  0  0  0  0  0  0  0  0  0  0  0
    0.0133   49.7053   57.3055 C   0  0  0  0  0  0  0  0  0  0  0  0
    0.4561   49.7392   58.6113 C   0  0  0  0  0  0  0  0  0  0  0  0
    0.9526   50.9638   59.2499 C   0  0  0  0  0  0  0  0  0  0  0  0
    0.2572   52.1455   59.2181 C   0  0  0  0  0  0  0  0  0  0  0  0
    0.7005   53.3098   59.8090 C   0  0  0  0  0  0  0  0  0  0  0  0
    1.9070   53.3156   60.4763 C   0  0  0  0  0  0  0  0  0  0  0  0
    2.3514   54.4437   61.0566 F   0  0  0  0  0  0  0  0  0  0  0  0
    2.6200   52.1228   60.5147 C   0  0  0  0  0  0  0  0  0  0  0  0
    2.1835   50.9516   59.9249 C   0  0  0  0  0  0  0  0  0  0  0  0
    2.8475   49.7680   59.9408 O   0  0  0  0  0  0  0  0  0  0  0  0
    3.8073   49.2395   60.7622 C   0  0  0  0  0  0  0  0  0  0  0  0
    5.1622   49.0088   60.1890 C   0  0  0  0  0  0  0  0  0  0  0  0
    5.1794   47.8928   59.2000 C   0  0  0  0  0  0  0  0  0  0  0  0
    6.3855   47.4353   58.6858 C   0  0  0  0  0  0  0  0  0  0  0  0
    6.4377   46.4087   57.7735 C   0  0  0  0  0  0  0  0  0  0  0  0
    5.2701   45.8153   57.3553 C   0  0  0  0  0  0  0  0  0  0  0  0
    4.1057   46.2864   57.8778 N   0  0  0  0  0  0  0  0  0  0  0  0
    4.0308   47.2749   58.7584 C   0  0  0  0  0  0  0  0  0  0  0  0
    0.4187   48.5618   59.3171 C   0  0  0  0  0  0  0  0  0  0  0  0
   -0.0423   47.3698   58.7617 C   0  0  0  0  0  0  0  0  0  0  0  0
  1  2  1  0
  2  3  1  0
  2  4  1  0
  4  5  1  0
  5  6  1  0
  6  7  1  0
  7  8  2  0
  8  9  1  0
  9 10  2  0
 10 11  1  0
 11 12  1  0
 12 13  2  0
 13 14  1  0
 14 15  2  0
 15 16  1  0
 15 17  1  0
 17 18  2  0
 18 19  1  0
 19 20  1  0
 20 21  1  0
 21 22  1  0
 22 23  2  0
 23 24  1  0
 24 25  2  0
 25 26  1  0
 26 27  2  0
 11 28  2  0
 28 29  1  0
 29  5  2  0
 29  8  1  0
 18 12  1  0
 27 22  1  0
M  END
$$$$
