
     RDKit          3D

 29 32  0  0  0  0  0  0  0  0999 V2000
    5.7986   46.7910   60.1905 C   0  0  0  0  0  0  0  0  0  0  0  0
    5.8473   46.4510   58.7952 N   0  0  0  0  0  0  0  0  0  0  0  0
    7.1336   46.5811   58.1870 C   0  0  0  0  0  0  0  0  0  0  0  0
    4.7658   47.0168   58.0408 C   0  0  0  0  0  0  0  0  0  0  0  0
    3.4753   46.6168   58.6909 C   0  0  0  0  0  0  0  0  0  0  0  0
    3.0363   45.3650   58.9179 N   0  0  0  0  0  0  0  0  0  0  0  0
    1.8604   45.4697   59.5070 N   0  0  0  0  0  0  0  0  0  0  0  0
    1.5207   46.7720   59.6701 C   0  0  0  0  0  0  0  0  0  0  0  0
    0.4319   47.4242   60.2123 C   0  0  0  0  0  0  0  0  0  0  0  0
    0.3651   48.8048   60.2382 C   0  0  0  0  0  0  0  0  0  0  0  0
    1.3837   49.5791   59.7232 C   0  0  0  0  0  0  0  0  0  0  0  0
    1.3484   51.0462   59.7325 C   0  0  0  0  0  0  0  0  0  0  0  0
    0.3327   51.7626   59.1528 C   0  0  0  0  0  0  0  0  0  0  0  0
    0.2752   53.1403   59.1468 C   0  0  0  0  0  0  0  0  0  0  0  0
    1.2816   53.8643   59.7502 C   0  0  0  0  0  0  0  0  0  0  0  0
    1.2383   55.2077   59.7514 F   0  0  0  0  0  0  0  0  0  0  0  0
    2.3160   53.1478   60.3411 C   0  0  0  0  0  0  0  0  0  0  0  0
    2.3819   51.7673   60.3513 C   0  0  0  0  0  0  0  0  0  0  0  0
    3.3717   51.0313   60.9173 O   0  0  0  0  0  0  0  0  0  0  0  0
    4.7175   51.2292   61.0753 C   0  0  0  0  0  0  0  0  0  0  0  0
    5.1739   51.9674   62.2854 C   0  0  0  0  0  0  0  0  0  0  0  0
    5.3021   51.0815   63.4780 C   0  0  0  0  0  0  0  0  0  0  0  0
    5.8564   51.5706   64.6536 C   0  0  0  0  0  0  0  0  0  0  0  0
    5.9890   50.7818   65.7713 C   0  0  0  0  0  0  0  0  0  0  0  0
    5.5642   49.4748   65.7313 C   0  0  0  0  0  0  0  0  0  0  0  0
    5.0260   49.0264   64.5651 N   0  0  0  0  0  0  0  0  0  0  0  0
    4.8880   49.7683   63.4748 C   0  0  0  0  0  0  0  0  0  0  0  0
    2.4623   48.9201   59.1861 C   0  0  0  0  0  0  0  0  0  0  0  0
    2.5489   47.5298   59.1504 C   0  0  0  0  0  0  0  0  0  0  0  0
  1  2  1  0
  2  3  1  0
  2  4  1  0
  4  5  1  0
  5  6  1  0
  6  7  1  0
  7  8  2  0
  8  9  1  0
  9 10  2  0
 10 11  1  0
 11 12  1  0
 12 13  2  0
 13 14  1  0
 14 15  2  0
 15 16  1  0
 15 17  1  0
 17 18  2  0
 18 19  1  0
 19 20  1  0
 20 21  1  0
 21 22  1  0
 22 23  2  0
 23 24  1  0
 24 25  2  0
 25 26  1  0
 26 27  2  0
 11 28  2  0
 28 29  1  0
 29  5  2  0
 29  8  1  0
 18 12  1  0
 27 22  1  0
M  END
$$$$
