
     RDKit          3D

 29 32  0  0  0  0  0  0  0  0999 V2000
    4.7671   50.3265   65.5311 C   0  0  0  0  0  0  0  0  0  0  0  0
    5.9398   51.1408   65.3680 N   0  0  0  0  0  0  0  0  0  0  0  0
    6.1366   52.1256   66.3842 C   0  0  0  0  0  0  0  0  0  0  0  0
    6.1093   51.6197   64.0261 C   0  0  0  0  0  0  0  0  0  0  0  0
    6.0803   50.4435   63.0967 C   0  0  0  0  0  0  0  0  0  0  0  0
    6.8959   49.3732   63.1187 N   0  0  0  0  0  0  0  0  0  0  0  0
    6.5230   48.5838   62.1295 N   0  0  0  0  0  0  0  0  0  0  0  0
    5.4744   49.1201   61.4581 C   0  0  0  0  0  0  0  0  0  0  0  0
    4.7184   48.7229   60.3739 C   0  0  0  0  0  0  0  0  0  0  0  0
    3.6804   49.5040   59.9010 C   0  0  0  0  0  0  0  0  0  0  0  0
    3.3636   50.7074   60.4957 C   0  0  0  0  0  0  0  0  0  0  0  0
    2.2697   51.5636   60.0222 C   0  0  0  0  0  0  0  0  0  0  0  0
    2.3570   52.9323   60.0113 C   0  0  0  0  0  0  0  0  0  0  0  0
    1.3450   53.7597   59.5724 C   0  0  0  0  0  0  0  0  0  0  0  0
    0.1681   53.2076   59.1130 C   0  0  0  0  0  0  0  0  0  0  0  0
   -0.8268   54.0024   58.6826 F   0  0  0  0  0  0  0  0  0  0  0  0
    0.0692   51.8210   59.1195 C   0  0  0  0  0  0  0  0  0  0  0  0
    1.0781   50.9843   59.5580 C   0  0  0  0  0  0  0  0  0  0  0  0
    1.0220   49.6285   59.5793 O   0  0  0  0  0  0  0  0  0  0  0  0
    0.0071   48.7267   59.3997 C   0  0  0  0  0  0  0  0  0  0  0  0
    0.3723   47.2910   59.2477 C   0  0  0  0  0  0  0  0  0  0  0  0
    0.9120   46.7044   60.5080 C   0  0  0  0  0  0  0  0  0  0  0  0
    1.4885   45.4411   60.4981 C   0  0  0  0  0  0  0  0  0  0  0  0
    1.9962   44.8709   61.6410 C   0  0  0  0  0  0  0  0  0  0  0  0
    1.9348   45.5633   62.8273 C   0  0  0  0  0  0  0  0  0  0  0  0
    1.3641   46.7980   62.8033 N   0  0  0  0  0  0  0  0  0  0  0  0
    0.8680   47.3681   61.7137 C   0  0  0  0  0  0  0  0  0  0  0  0
    4.1220   51.0932   61.5737 C   0  0  0  0  0  0  0  0  0  0  0  0
    5.1721   50.3206   62.0657 C   0  0  0  0  0  0  0  0  0  0  0  0
  1  2  1  0
  2  3  1  0
  2  4  1  0
  4  5  1  0
  5  6  1  0
  6  7  1  0
  7  8  2  0
  8  9  1  0
  9 10  2  0
 10 11  1  0
 11 12  1  0
 12 13  2  0
 13 14  1  0
 14 15  2  0
 15 16  1  0
 15 17  1  0
 17 18  2  0
 18 19  1  0
 19 20  1  0
 20 21  1  0
 21 22  1  0
 22 23  2  0
 23 24  1  0
 24 25  2  0
 25 26  1  0
 26 27  2  0
 11 28  2  0
 28 29  1  0
 29  5  2  0
 29  8  1  0
 18 12  1  0
 27 22  1  0
M  END
$$$$
