
     RDKit          3D

 29 32  0  0  0  0  0  0  0  0999 V2000
    6.6391   45.5330   58.4252 C   0  0  0  0  0  0  0  0  0  0  0  0
    5.2079   45.4394   58.5119 N   0  0  0  0  0  0  0  0  0  0  0  0
    4.5717   44.8505   57.3762 C   0  0  0  0  0  0  0  0  0  0  0  0
    4.5935   46.6463   58.9863 C   0  0  0  0  0  0  0  0  0  0  0  0
    3.1323   46.3830   59.1948 C   0  0  0  0  0  0  0  0  0  0  0  0
    2.5167   45.1862   59.1966 N   0  0  0  0  0  0  0  0  0  0  0  0
    1.2353   45.4119   59.4148 N   0  0  0  0  0  0  0  0  0  0  0  0
    1.0002   46.7395   59.5564 C   0  0  0  0  0  0  0  0  0  0  0  0
   -0.1273   47.4997   59.7926 C   0  0  0  0  0  0  0  0  0  0  0  0
   -0.0542   48.8768   59.8898 C   0  0  0  0  0  0  0  0  0  0  0  0
    1.1477   49.5396   59.7542 C   0  0  0  0  0  0  0  0  0  0  0  0
    1.2648   50.9994   59.8508 C   0  0  0  0  0  0  0  0  0  0  0  0
    0.2518   51.8461   59.4796 C   0  0  0  0  0  0  0  0  0  0  0  0
    0.3356   53.2201   59.5597 C   0  0  0  0  0  0  0  0  0  0  0  0
    1.4907   53.8031   60.0361 C   0  0  0  0  0  0  0  0  0  0  0  0
    1.5860   55.1413   60.1192 F   0  0  0  0  0  0  0  0  0  0  0  0
    2.5237   52.9537   60.4155 C   0  0  0  0  0  0  0  0  0  0  0  0
    2.4485   51.5758   60.3381 C   0  0  0  0  0  0  0  0  0  0  0  0
    3.4320   50.7130   60.6989 O   0  0  0  0  0  0  0  0  0  0  0  0
    4.7085   50.8838   61.1644 C   0  0  0  0  0  0  0  0  0  0  0  0
    5.2351   49.8819   62.1321 C   0  0  0  0  0  0  0  0  0  0  0  0
    5.3565   50.4329   63.5125 C   0  0  0  0  0  0  0  0  0  0  0  0
    5.8807   49.6495   64.5323 C   0  0  0  0  0  0  0  0  0  0  0  0
    6.0072   50.1257   65.8153 C   0  0  0  0  0  0  0  0  0  0  0  0
    5.6066   51.4091   66.1032 C   0  0  0  0  0  0  0  0  0  0  0  0
    5.0975   52.1504   65.0824 N   0  0  0  0  0  0  0  0  0  0  0  0
    4.9659   51.7126   63.8376 C   0  0  0  0  0  0  0  0  0  0  0  0
    2.2633   48.7739   59.5194 C   0  0  0  0  0  0  0  0  0  0  0  0
    2.2109   47.3851   59.4181 C   0  0  0  0  0  0  0  0  0  0  0  0
  1  2  1  0
  2  3  1  0
  2  4  1  0
  4  5  1  0
  5  6  1  0
  6  7  1  0
  7  8  2  0
  8  9  1  0
  9 10  2  0
 10 11  1  0
 11 12  1  0
 12 13  2  0
 13 14  1  0
 14 15  2  0
 15 16  1  0
 15 17  1  0
 17 18  2  0
 18 19  1  0
 19 20  1  0
 20 21  1  0
 21 22  1  0
 22 23  2  0
 23 24  1  0
 24 25  2  0
 25 26  1  0
 26 27  2  0
 11 28  2  0
 28 29  1  0
 29  5  2  0
 29  8  1  0
 18 12  1  0
 27 22  1  0
M  END
$$$$
