
     RDKit          3D

 29 32  0  0  0  0  0  0  0  0999 V2000
    6.9126   50.1570   65.8605 C   0  0  0  0  0  0  0  0  0  0  0  0
    5.9067   50.9827   65.2512 N   0  0  0  0  0  0  0  0  0  0  0  0
    4.5835   50.4448   65.2839 C   0  0  0  0  0  0  0  0  0  0  0  0
    6.3088   51.5124   63.9797 C   0  0  0  0  0  0  0  0  0  0  0  0
    6.2804   50.4010   62.9737 C   0  0  0  0  0  0  0  0  0  0  0  0
    7.1182   49.3501   62.9035 N   0  0  0  0  0  0  0  0  0  0  0  0
    6.7365   48.6210   61.8723 N   0  0  0  0  0  0  0  0  0  0  0  0
    5.6602   49.1776   61.2642 C   0  0  0  0  0  0  0  0  0  0  0  0
    4.8852   48.8375   60.1741 C   0  0  0  0  0  0  0  0  0  0  0  0
    3.8195   49.6253   59.7803 C   0  0  0  0  0  0  0  0  0  0  0  0
    3.4933   50.7786   60.4627 C   0  0  0  0  0  0  0  0  0  0  0  0
    2.3703   51.6401   60.0748 C   0  0  0  0  0  0  0  0  0  0  0  0
    2.3864   52.9992   60.2584 C   0  0  0  0  0  0  0  0  0  0  0  0
    1.3456   53.8312   59.9036 C   0  0  0  0  0  0  0  0  0  0  0  0
    0.2127   53.2942   59.3299 C   0  0  0  0  0  0  0  0  0  0  0  0
   -0.8095   54.0937   58.9796 F   0  0  0  0  0  0  0  0  0  0  0  0
    0.1861   51.9175   59.1391 C   0  0  0  0  0  0  0  0  0  0  0  0
    1.2243   51.0762   59.4921 C   0  0  0  0  0  0  0  0  0  0  0  0
    1.2383   49.7299   59.3217 O   0  0  0  0  0  0  0  0  0  0  0  0
    0.3283   48.8358   58.8237 C   0  0  0  0  0  0  0  0  0  0  0  0
   -0.5197   48.0928   59.7965 C   0  0  0  0  0  0  0  0  0  0  0  0
    0.2805   47.2020   60.6851 C   0  0  0  0  0  0  0  0  0  0  0  0
   -0.2581   46.7429   61.8800 C   0  0  0  0  0  0  0  0  0  0  0  0
    0.4514   45.9204   62.7221 C   0  0  0  0  0  0  0  0  0  0  0  0
    1.7269   45.5387   62.3789 C   0  0  0  0  0  0  0  0  0  0  0  0
    2.2253   46.0055   61.2023 N   0  0  0  0  0  0  0  0  0  0  0  0
    1.5601   46.7994   60.3743 C   0  0  0  0  0  0  0  0  0  0  0  0
    4.2708   51.1078   61.5458 C   0  0  0  0  0  0  0  0  0  0  0  0
    5.3489   50.3275   61.9589 C   0  0  0  0  0  0  0  0  0  0  0  0
  1  2  1  0
  2  3  1  0
  2  4  1  0
  4  5  1  0
  5  6  1  0
  6  7  1  0
  7  8  2  0
  8  9  1  0
  9 10  2  0
 10 11  1  0
 11 12  1  0
 12 13  2  0
 13 14  1  0
 14 15  2  0
 15 16  1  0
 15 17  1  0
 17 18  2  0
 18 19  1  0
 19 20  1  0
 20 21  1  0
 21 22  1  0
 22 23  2  0
 23 24  1  0
 24 25  2  0
 25 26  1  0
 26 27  2  0
 11 28  2  0
 28 29  1  0
 29  5  2  0
 29  8  1  0
 18 12  1  0
 27 22  1  0
M  END
$$$$
