
     RDKit          3D

 29 32  0  0  0  0  0  0  0  0999 V2000
    8.5369   50.6797   64.3822 C   0  0  0  0  0  0  0  0  0  0  0  0
    7.5336   49.6642   64.2179 N   0  0  0  0  0  0  0  0  0  0  0  0
    8.0340   48.3728   63.8670 C   0  0  0  0  0  0  0  0  0  0  0  0
    6.4101   50.1046   63.4416 C   0  0  0  0  0  0  0  0  0  0  0  0
    6.8710   50.3419   62.0346 C   0  0  0  0  0  0  0  0  0  0  0  0
    8.1038   50.1283   61.5390 N   0  0  0  0  0  0  0  0  0  0  0  0
    8.0714   50.4689   60.2648 N   0  0  0  0  0  0  0  0  0  0  0  0
    6.8353   50.9030   59.9163 C   0  0  0  0  0  0  0  0  0  0  0  0
    6.2698   51.3650   58.7451 C   0  0  0  0  0  0  0  0  0  0  0  0
    4.9422   51.7472   58.6940 C   0  0  0  0  0  0  0  0  0  0  0  0
    4.1361   51.6805   59.8111 C   0  0  0  0  0  0  0  0  0  0  0  0
    2.7232   52.0774   59.7957 C   0  0  0  0  0  0  0  0  0  0  0  0
    2.3206   53.3759   59.9764 C   0  0  0  0  0  0  0  0  0  0  0  0
    1.0010   53.7757   59.9670 C   0  0  0  0  0  0  0  0  0  0  0  0
    0.0093   52.8390   59.7666 C   0  0  0  0  0  0  0  0  0  0  0  0
   -1.2812   53.2148   59.7554 F   0  0  0  0  0  0  0  0  0  0  0  0
    0.4067   51.5196   59.5821 C   0  0  0  0  0  0  0  0  0  0  0  0
    1.7267   51.1101   59.5906 C   0  0  0  0  0  0  0  0  0  0  0  0
    2.1556   49.8348   59.4133 O   0  0  0  0  0  0  0  0  0  0  0  0
    1.8091   48.6385   59.9829 C   0  0  0  0  0  0  0  0  0  0  0  0
    1.1786   47.6100   59.1098 C   0  0  0  0  0  0  0  0  0  0  0  0
    1.0833   46.2791   59.7756 C   0  0  0  0  0  0  0  0  0  0  0  0
    0.4080   45.2361   59.1554 C   0  0  0  0  0  0  0  0  0  0  0  0
    0.3016   43.9969   59.7404 C   0  0  0  0  0  0  0  0  0  0  0  0
    0.8758   43.7778   60.9703 C   0  0  0  0  0  0  0  0  0  0  0  0
    1.5299   44.8197   61.5510 N   0  0  0  0  0  0  0  0  0  0  0  0
    1.6455   46.0231   61.0062 C   0  0  0  0  0  0  0  0  0  0  0  0
    4.7086   51.2195   60.9711 C   0  0  0  0  0  0  0  0  0  0  0  0
    6.0444   50.8294   61.0436 C   0  0  0  0  0  0  0  0  0  0  0  0
  1  2  1  0
  2  3  1  0
  2  4  1  0
  4  5  1  0
  5  6  1  0
  6  7  1  0
  7  8  2  0
  8  9  1  0
  9 10  2  0
 10 11  1  0
 11 12  1  0
 12 13  2  0
 13 14  1  0
 14 15  2  0
 15 16  1  0
 15 17  1  0
 17 18  2  0
 18 19  1  0
 19 20  1  0
 20 21  1  0
 21 22  1  0
 22 23  2  0
 23 24  1  0
 24 25  2  0
 25 26  1  0
 26 27  2  0
 11 28  2  0
 28 29  1  0
 29  5  2  0
 29  8  1  0
 18 12  1  0
 27 22  1  0
M  END
$$$$
