
     RDKit          3D

 29 32  0  0  0  0  0  0  0  0999 V2000
    0.0938   44.5593   62.4127 C   0  0  0  0  0  0  0  0  0  0  0  0
    1.4939   44.8662   62.3110 N   0  0  0  0  0  0  0  0  0  0  0  0
    2.2610   44.5795   63.4817 C   0  0  0  0  0  0  0  0  0  0  0  0
    1.7463   46.1524   61.7271 C   0  0  0  0  0  0  0  0  0  0  0  0
    1.0468   46.2162   60.4025 C   0  0  0  0  0  0  0  0  0  0  0  0
    0.6193   45.1776   59.6611 N   0  0  0  0  0  0  0  0  0  0  0  0
    0.0625   45.6814   58.5763 N   0  0  0  0  0  0  0  0  0  0  0  0
    0.1181   47.0358   58.5944 C   0  0  0  0  0  0  0  0  0  0  0  0
   -0.3030   48.0301   57.7347 C   0  0  0  0  0  0  0  0  0  0  0  0
   -0.1008   49.3652   58.0313 C   0  0  0  0  0  0  0  0  0  0  0  0
    0.5287   49.7507   59.1964 C   0  0  0  0  0  0  0  0  0  0  0  0
    0.7614   51.1571   59.5454 C   0  0  0  0  0  0  0  0  0  0  0  0
   -0.1928   52.1269   59.3721 C   0  0  0  0  0  0  0  0  0  0  0  0
   -0.0004   53.4545   59.6911 C   0  0  0  0  0  0  0  0  0  0  0  0
    1.2090   53.8583   60.2155 C   0  0  0  0  0  0  0  0  0  0  0  0
    1.4102   55.1494   60.5306 F   0  0  0  0  0  0  0  0  0  0  0  0
    2.1832   52.8830   60.3955 C   0  0  0  0  0  0  0  0  0  0  0  0
    1.9992   51.5504   60.0781 C   0  0  0  0  0  0  0  0  0  0  0  0
    2.9223   50.5688   60.2395 O   0  0  0  0  0  0  0  0  0  0  0  0
    4.2301   50.5657   60.6459 C   0  0  0  0  0  0  0  0  0  0  0  0
    4.8344   49.2607   61.0327 C   0  0  0  0  0  0  0  0  0  0  0  0
    5.1050   49.1702   62.4963 C   0  0  0  0  0  0  0  0  0  0  0  0
    5.8010   48.0843   63.0108 C   0  0  0  0  0  0  0  0  0  0  0  0
    6.0682   47.9695   64.3541 C   0  0  0  0  0  0  0  0  0  0  0  0
    5.6383   48.9511   65.2156 C   0  0  0  0  0  0  0  0  0  0  0  0
    4.9594   50.0014   64.6802 N   0  0  0  0  0  0  0  0  0  0  0  0
    4.6902   50.1334   63.3886 C   0  0  0  0  0  0  0  0  0  0  0  0
    0.9436   48.7536   60.0447 C   0  0  0  0  0  0  0  0  0  0  0  0
    0.7494   47.4025   59.7643 C   0  0  0  0  0  0  0  0  0  0  0  0
  1  2  1  0
  2  3  1  0
  2  4  1  0
  4  5  1  0
  5  6  1  0
  6  7  1  0
  7  8  2  0
  8  9  1  0
  9 10  2  0
 10 11  1  0
 11 12  1  0
 12 13  2  0
 13 14  1  0
 14 15  2  0
 15 16  1  0
 15 17  1  0
 17 18  2  0
 18 19  1  0
 19 20  1  0
 20 21  1  0
 21 22  1  0
 22 23  2  0
 23 24  1  0
 24 25  2  0
 25 26  1  0
 26 27  2  0
 11 28  2  0
 28 29  1  0
 29  5  2  0
 29  8  1  0
 18 12  1  0
 27 22  1  0
M  END
$$$$
