
     RDKit          3D

 29 32  0  0  0  0  0  0  0  0999 V2000
    0.4267   44.3032   62.4505 C   0  0  0  0  0  0  0  0  0  0  0  0
    1.8016   44.7208   62.4645 N   0  0  0  0  0  0  0  0  0  0  0  0
    2.4790   44.5251   63.7071 C   0  0  0  0  0  0  0  0  0  0  0  0
    2.0036   46.0094   61.8664 C   0  0  0  0  0  0  0  0  0  0  0  0
    1.3455   46.0141   60.5192 C   0  0  0  0  0  0  0  0  0  0  0  0
    0.9648   44.9423   59.7997 N   0  0  0  0  0  0  0  0  0  0  0  0
    0.4321   45.3978   58.6819 N   0  0  0  0  0  0  0  0  0  0  0  0
    0.4572   46.7530   58.6568 C   0  0  0  0  0  0  0  0  0  0  0  0
    0.0422   47.7089   57.7519 C   0  0  0  0  0  0  0  0  0  0  0  0
    0.2055   49.0572   58.0102 C   0  0  0  0  0  0  0  0  0  0  0  0
    0.7887   49.4947   59.1809 C   0  0  0  0  0  0  0  0  0  0  0  0
    0.9792   50.9166   59.4902 C   0  0  0  0  0  0  0  0  0  0  0  0
    0.0173   51.8610   59.2374 C   0  0  0  0  0  0  0  0  0  0  0  0
    0.1704   53.2024   59.5176 C   0  0  0  0  0  0  0  0  0  0  0  0
    1.3459   53.6478   60.0840 C   0  0  0  0  0  0  0  0  0  0  0  0
    1.5087   54.9528   60.3620 F   0  0  0  0  0  0  0  0  0  0  0  0
    2.3276   52.6985   60.3445 C   0  0  0  0  0  0  0  0  0  0  0  0
    2.1829   51.3524   60.0665 C   0  0  0  0  0  0  0  0  0  0  0  0
    3.1146   50.3952   60.3064 O   0  0  0  0  0  0  0  0  0  0  0  0
    4.4232   50.4366   60.7078 C   0  0  0  0  0  0  0  0  0  0  0  0
    4.7704   51.3202   61.8551 C   0  0  0  0  0  0  0  0  0  0  0  0
    5.0854   50.5494   63.0922 C   0  0  0  0  0  0  0  0  0  0  0  0
    5.3675   51.2170   64.2768 C   0  0  0  0  0  0  0  0  0  0  0  0
    5.6613   50.5380   65.4351 C   0  0  0  0  0  0  0  0  0  0  0  0
    5.6781   49.1632   65.4277 C   0  0  0  0  0  0  0  0  0  0  0  0
    5.3976   48.5395   64.2517 N   0  0  0  0  0  0  0  0  0  0  0  0
    5.1115   49.1730   63.1224 C   0  0  0  0  0  0  0  0  0  0  0  0
    1.1981   48.5354   60.0744 C   0  0  0  0  0  0  0  0  0  0  0  0
    1.0427   47.1718   59.8331 C   0  0  0  0  0  0  0  0  0  0  0  0
  1  2  1  0
  2  3  1  0
  2  4  1  0
  4  5  1  0
  5  6  1  0
  6  7  1  0
  7  8  2  0
  8  9  1  0
  9 10  2  0
 10 11  1  0
 11 12  1  0
 12 13  2  0
 13 14  1  0
 14 15  2  0
 15 16  1  0
 15 17  1  0
 17 18  2  0
 18 19  1  0
 19 20  1  0
 20 21  1  0
 21 22  1  0
 22 23  2  0
 23 24  1  0
 24 25  2  0
 25 26  1  0
 26 27  2  0
 11 28  2  0
 28 29  1  0
 29  5  2  0
 29  8  1  0
 18 12  1  0
 27 22  1  0
M  END
$$$$
