
     RDKit          3D

 29 32  0  0  0  0  0  0  0  0999 V2000
    5.8885   49.4647   64.1809 C   0  0  0  0  0  0  0  0  0  0  0  0
    6.5755   50.6105   64.7101 N   0  0  0  0  0  0  0  0  0  0  0  0
    6.3403   50.8684   66.0955 C   0  0  0  0  0  0  0  0  0  0  0  0
    6.4835   51.7629   63.8602 C   0  0  0  0  0  0  0  0  0  0  0  0
    6.9165   51.3687   62.4799 C   0  0  0  0  0  0  0  0  0  0  0  0
    8.1282   50.9150   62.1094 N   0  0  0  0  0  0  0  0  0  0  0  0
    8.0754   50.6910   60.8104 N   0  0  0  0  0  0  0  0  0  0  0  0
    6.8467   50.9909   60.3221 C   0  0  0  0  0  0  0  0  0  0  0  0
    6.2682   50.9428   59.0700 C   0  0  0  0  0  0  0  0  0  0  0  0
    4.9538   51.3242   58.8742 C   0  0  0  0  0  0  0  0  0  0  0  0
    4.1745   51.7662   59.9228 C   0  0  0  0  0  0  0  0  0  0  0  0
    2.7764   52.1794   59.7540 C   0  0  0  0  0  0  0  0  0  0  0  0
    2.3329   53.4330   60.0900 C   0  0  0  0  0  0  0  0  0  0  0  0
    1.0259   53.8468   59.9421 C   0  0  0  0  0  0  0  0  0  0  0  0
    0.0909   52.9725   59.4300 C   0  0  0  0  0  0  0  0  0  0  0  0
   -1.1868   53.3627   59.2808 F   0  0  0  0  0  0  0  0  0  0  0  0
    0.5301   51.6992   59.0859 C   0  0  0  0  0  0  0  0  0  0  0  0
    1.8377   51.2759   59.2312 C   0  0  0  0  0  0  0  0  0  0  0  0
    2.3064   50.0443   58.9066 O   0  0  0  0  0  0  0  0  0  0  0  0
    2.2595   48.8261   59.5304 C   0  0  0  0  0  0  0  0  0  0  0  0
    1.2050   47.8660   59.1016 C   0  0  0  0  0  0  0  0  0  0  0  0
    1.2255   46.6051   59.8973 C   0  0  0  0  0  0  0  0  0  0  0  0
    0.2259   45.6564   59.7265 C   0  0  0  0  0  0  0  0  0  0  0  0
    0.2145   44.4835   60.4428 C   0  0  0  0  0  0  0  0  0  0  0  0
    1.2150   44.2369   61.3530 C   0  0  0  0  0  0  0  0  0  0  0  0
    2.1791   45.1859   61.4968 N   0  0  0  0  0  0  0  0  0  0  0  0
    2.2108   46.3242   60.8173 C   0  0  0  0  0  0  0  0  0  0  0  0
    4.7599   51.8102   61.1643 C   0  0  0  0  0  0  0  0  0  0  0  0
    6.0826   51.4303   61.3827 C   0  0  0  0  0  0  0  0  0  0  0  0
  1  2  1  0
  2  3  1  0
  2  4  1  0
  4  5  1  0
  5  6  1  0
  6  7  1  0
  7  8  2  0
  8  9  1  0
  9 10  2  0
 10 11  1  0
 11 12  1  0
 12 13  2  0
 13 14  1  0
 14 15  2  0
 15 16  1  0
 15 17  1  0
 17 18  2  0
 18 19  1  0
 19 20  1  0
 20 21  1  0
 21 22  1  0
 22 23  2  0
 23 24  1  0
 24 25  2  0
 25 26  1  0
 26 27  2  0
 11 28  2  0
 28 29  1  0
 29  5  2  0
 29  8  1  0
 18 12  1  0
 27 22  1  0
M  END
$$$$
