
     RDKit          3D

 29 32  0  0  0  0  0  0  0  0999 V2000
    2.4941   44.0066   61.8188 C   0  0  0  0  0  0  0  0  0  0  0  0
    1.4545   44.8511   62.3395 N   0  0  0  0  0  0  0  0  0  0  0  0
    0.1436   44.2837   62.3074 C   0  0  0  0  0  0  0  0  0  0  0  0
    1.5365   46.2020   61.8629 C   0  0  0  0  0  0  0  0  0  0  0  0
    0.8966   46.2656   60.5085 C   0  0  0  0  0  0  0  0  0  0  0  0
    0.4614   45.2292   59.7685 N   0  0  0  0  0  0  0  0  0  0  0  0
   -0.0292   45.7319   58.6517 N   0  0  0  0  0  0  0  0  0  0  0  0
    0.0774   47.0834   58.6473 C   0  0  0  0  0  0  0  0  0  0  0  0
   -0.2683   48.0754   57.7523 C   0  0  0  0  0  0  0  0  0  0  0  0
   -0.0278   49.4076   58.0328 C   0  0  0  0  0  0  0  0  0  0  0  0
    0.5661   49.7924   59.2167 C   0  0  0  0  0  0  0  0  0  0  0  0
    0.8376   51.1957   59.5496 C   0  0  0  0  0  0  0  0  0  0  0  0
   -0.1008   52.1842   59.3966 C   0  0  0  0  0  0  0  0  0  0  0  0
    0.1279   53.5094   59.7011 C   0  0  0  0  0  0  0  0  0  0  0  0
    1.3598   53.8910   60.1887 C   0  0  0  0  0  0  0  0  0  0  0  0
    1.5965   55.1796   60.4893 F   0  0  0  0  0  0  0  0  0  0  0  0
    2.3182   52.8967   60.3478 C   0  0  0  0  0  0  0  0  0  0  0  0
    2.0978   51.5664   60.0447 C   0  0  0  0  0  0  0  0  0  0  0  0
    3.0046   50.5667   60.1867 O   0  0  0  0  0  0  0  0  0  0  0  0
    4.2989   50.5277   60.6325 C   0  0  0  0  0  0  0  0  0  0  0  0
    4.7595   49.2906   61.3217 C   0  0  0  0  0  0  0  0  0  0  0  0
    4.9465   49.4916   62.7874 C   0  0  0  0  0  0  0  0  0  0  0  0
    5.7231   48.6031   63.5195 C   0  0  0  0  0  0  0  0  0  0  0  0
    5.9168   48.7588   64.8713 C   0  0  0  0  0  0  0  0  0  0  0  0
    5.3297   49.8187   65.5211 C   0  0  0  0  0  0  0  0  0  0  0  0
    4.5753   50.6707   64.7757 N   0  0  0  0  0  0  0  0  0  0  0  0
    4.3744   50.5408   63.4715 C   0  0  0  0  0  0  0  0  0  0  0  0
    0.9061   48.7975   60.1002 C   0  0  0  0  0  0  0  0  0  0  0  0
    0.6723   47.4493   59.8365 C   0  0  0  0  0  0  0  0  0  0  0  0
  1  2  1  0
  2  3  1  0
  2  4  1  0
  4  5  1  0
  5  6  1  0
  6  7  1  0
  7  8  2  0
  8  9  1  0
  9 10  2  0
 10 11  1  0
 11 12  1  0
 12 13  2  0
 13 14  1  0
 14 15  2  0
 15 16  1  0
 15 17  1  0
 17 18  2  0
 18 19  1  0
 19 20  1  0
 20 21  1  0
 21 22  1  0
 22 23  2  0
 23 24  1  0
 24 25  2  0
 25 26  1  0
 26 27  2  0
 11 28  2  0
 28 29  1  0
 29  5  2  0
 29  8  1  0
 18 12  1  0
 27 22  1  0
M  END
$$$$
