
     RDKit          3D

 29 32  0  0  0  0  0  0  0  0999 V2000
    1.7096   43.9380   59.9309 C   0  0  0  0  0  0  0  0  0  0  0  0
    0.8664   44.2476   61.0525 N   0  0  0  0  0  0  0  0  0  0  0  0
   -0.1182   43.2586   61.3583 C   0  0  0  0  0  0  0  0  0  0  0  0
    0.3773   45.5964   61.0324 C   0  0  0  0  0  0  0  0  0  0  0  0
    0.0233   45.9503   59.6191 C   0  0  0  0  0  0  0  0  0  0  0  0
   -0.4253   45.1162   58.6630 N   0  0  0  0  0  0  0  0  0  0  0  0
   -0.6091   45.8397   57.5752 N   0  0  0  0  0  0  0  0  0  0  0  0
   -0.2876   47.1369   57.8028 C   0  0  0  0  0  0  0  0  0  0  0  0
   -0.2941   48.2818   57.0321 C   0  0  0  0  0  0  0  0  0  0  0  0
    0.1002   49.4990   57.5559 C   0  0  0  0  0  0  0  0  0  0  0  0
    0.5140   49.6121   58.8667 C   0  0  0  0  0  0  0  0  0  0  0  0
    0.9399   50.8862   59.4578 C   0  0  0  0  0  0  0  0  0  0  0  0
    0.1508   52.0078   59.4385 C   0  0  0  0  0  0  0  0  0  0  0  0
    0.5264   53.2164   59.9857 C   0  0  0  0  0  0  0  0  0  0  0  0
    1.7587   53.3330   60.5930 C   0  0  0  0  0  0  0  0  0  0  0  0
    2.1376   54.5055   61.1302 F   0  0  0  0  0  0  0  0  0  0  0  0
    2.5664   52.2019   60.6183 C   0  0  0  0  0  0  0  0  0  0  0  0
    2.1983   50.9868   60.0720 C   0  0  0  0  0  0  0  0  0  0  0  0
    2.9555   49.8605   60.0770 O   0  0  0  0  0  0  0  0  0  0  0  0
    4.1515   49.5343   60.6589 C   0  0  0  0  0  0  0  0  0  0  0  0
    5.2799   49.1575   59.7633 C   0  0  0  0  0  0  0  0  0  0  0  0
    5.0734   47.8306   59.1150 C   0  0  0  0  0  0  0  0  0  0  0  0
    5.8314   47.4696   58.0087 C   0  0  0  0  0  0  0  0  0  0  0  0
    5.6674   46.2546   57.3873 C   0  0  0  0  0  0  0  0  0  0  0  0
    4.7312   45.3698   57.8680 C   0  0  0  0  0  0  0  0  0  0  0  0
    4.0053   45.7535   58.9527 N   0  0  0  0  0  0  0  0  0  0  0  0
    4.1458   46.9195   59.5683 C   0  0  0  0  0  0  0  0  0  0  0  0
    0.5167   48.4670   59.6247 C   0  0  0  0  0  0  0  0  0  0  0  0
    0.1231   47.2309   59.1159 C   0  0  0  0  0  0  0  0  0  0  0  0
  1  2  1  0
  2  3  1  0
  2  4  1  0
  4  5  1  0
  5  6  1  0
  6  7  1  0
  7  8  2  0
  8  9  1  0
  9 10  2  0
 10 11  1  0
 11 12  1  0
 12 13  2  0
 13 14  1  0
 14 15  2  0
 15 16  1  0
 15 17  1  0
 17 18  2  0
 18 19  1  0
 19 20  1  0
 20 21  1  0
 21 22  1  0
 22 23  2  0
 23 24  1  0
 24 25  2  0
 25 26  1  0
 26 27  2  0
 11 28  2  0
 28 29  1  0
 29  5  2  0
 29  8  1  0
 18 12  1  0
 27 22  1  0
M  END
$$$$
