
     RDKit          3D

 29 32  0  0  0  0  0  0  0  0999 V2000
    6.5455   50.2062   65.9494 C   0  0  0  0  0  0  0  0  0  0  0  0
    5.8164   51.2149   65.2312 N   0  0  0  0  0  0  0  0  0  0  0  0
    4.3970   51.0527   65.2370 C   0  0  0  0  0  0  0  0  0  0  0  0
    6.3824   51.5093   63.9459 C   0  0  0  0  0  0  0  0  0  0  0  0
    6.2167   50.3046   63.0688 C   0  0  0  0  0  0  0  0  0  0  0  0
    6.9561   49.1803   63.0882 N   0  0  0  0  0  0  0  0  0  0  0  0
    6.4712   48.3836   62.1551 N   0  0  0  0  0  0  0  0  0  0  0  0
    5.4240   48.9683   61.5230 C   0  0  0  0  0  0  0  0  0  0  0  0
    4.5791   48.5864   60.5007 C   0  0  0  0  0  0  0  0  0  0  0  0
    3.5713   49.4218   60.0559 C   0  0  0  0  0  0  0  0  0  0  0  0
    3.3746   50.6659   60.6177 C   0  0  0  0  0  0  0  0  0  0  0  0
    2.3163   51.5800   60.1724 C   0  0  0  0  0  0  0  0  0  0  0  0
    2.4739   52.9424   60.1662 C   0  0  0  0  0  0  0  0  0  0  0  0
    1.4966   53.8234   59.7536 C   0  0  0  0  0  0  0  0  0  0  0  0
    0.2831   53.3354   59.3175 C   0  0  0  0  0  0  0  0  0  0  0  0
   -0.6785   54.1829   58.9128 F   0  0  0  0  0  0  0  0  0  0  0  0
    0.1130   51.9557   59.3195 C   0  0  0  0  0  0  0  0  0  0  0  0
    1.0867   51.0656   59.7318 C   0  0  0  0  0  0  0  0  0  0  0  0
    0.9611   49.7143   59.7478 O   0  0  0  0  0  0  0  0  0  0  0  0
   -0.0921   48.8655   59.5346 C   0  0  0  0  0  0  0  0  0  0  0  0
    0.2148   47.4414   59.2257 C   0  0  0  0  0  0  0  0  0  0  0  0
    0.8297   46.7279   60.3818 C   0  0  0  0  0  0  0  0  0  0  0  0
    1.2845   45.4241   60.2346 C   0  0  0  0  0  0  0  0  0  0  0  0
    1.8567   44.7375   61.2788 C   0  0  0  0  0  0  0  0  0  0  0  0
    1.9849   45.3512   62.5025 C   0  0  0  0  0  0  0  0  0  0  0  0
    1.5296   46.6283   62.6138 N   0  0  0  0  0  0  0  0  0  0  0  0
    0.9746   47.3102   61.6212 C   0  0  0  0  0  0  0  0  0  0  0  0
    4.2208   51.0360   61.6341 C   0  0  0  0  0  0  0  0  0  0  0  0
    5.2424   50.2090   62.0969 C   0  0  0  0  0  0  0  0  0  0  0  0
  1  2  1  0
  2  3  1  0
  2  4  1  0
  4  5  1  0
  5  6  1  0
  6  7  1  0
  7  8  2  0
  8  9  1  0
  9 10  2  0
 10 11  1  0
 11 12  1  0
 12 13  2  0
 13 14  1  0
 14 15  2  0
 15 16  1  0
 15 17  1  0
 17 18  2  0
 18 19  1  0
 19 20  1  0
 20 21  1  0
 21 22  1  0
 22 23  2  0
 23 24  1  0
 24 25  2  0
 25 26  1  0
 26 27  2  0
 11 28  2  0
 28 29  1  0
 29  5  2  0
 29  8  1  0
 18 12  1  0
 27 22  1  0
M  END
$$$$
