
     RDKit          3D

 29 32  0  0  0  0  0  0  0  0999 V2000
    4.5481   50.5368   65.3056 C   0  0  0  0  0  0  0  0  0  0  0  0
    5.8154   51.2017   65.4350 N   0  0  0  0  0  0  0  0  0  0  0  0
    5.9064   52.1199   66.5258 C   0  0  0  0  0  0  0  0  0  0  0  0
    6.3189   51.6995   64.1869 C   0  0  0  0  0  0  0  0  0  0  0  0
    6.3284   50.5729   63.1975 C   0  0  0  0  0  0  0  0  0  0  0  0
    7.1817   49.5328   63.1622 N   0  0  0  0  0  0  0  0  0  0  0  0
    6.8335   48.7832   62.1338 N   0  0  0  0  0  0  0  0  0  0  0  0
    5.7640   49.3158   61.4932 C   0  0  0  0  0  0  0  0  0  0  0  0
    5.0187   48.9489   60.3911 C   0  0  0  0  0  0  0  0  0  0  0  0
    3.9518   49.7160   59.9613 C   0  0  0  0  0  0  0  0  0  0  0  0
    3.5946   50.8747   60.6186 C   0  0  0  0  0  0  0  0  0  0  0  0
    2.4692   51.7147   60.1923 C   0  0  0  0  0  0  0  0  0  0  0  0
    2.4324   53.0671   60.4176 C   0  0  0  0  0  0  0  0  0  0  0  0
    1.3881   53.8790   60.0282 C   0  0  0  0  0  0  0  0  0  0  0  0
    0.3072   53.3276   59.3737 C   0  0  0  0  0  0  0  0  0  0  0  0
   -0.7178   54.1074   58.9889 F   0  0  0  0  0  0  0  0  0  0  0  0
    0.3345   51.9575   59.1402 C   0  0  0  0  0  0  0  0  0  0  0  0
    1.3766   51.1362   59.5273 C   0  0  0  0  0  0  0  0  0  0  0  0
    1.4423   49.7971   59.3173 O   0  0  0  0  0  0  0  0  0  0  0  0
    0.5752   48.8869   58.7739 C   0  0  0  0  0  0  0  0  0  0  0  0
   -0.3717   48.1954   59.6920 C   0  0  0  0  0  0  0  0  0  0  0  0
    0.3227   47.2777   60.6403 C   0  0  0  0  0  0  0  0  0  0  0  0
   -0.2993   46.8944   61.8212 C   0  0  0  0  0  0  0  0  0  0  0  0
    0.3116   46.0498   62.7171 C   0  0  0  0  0  0  0  0  0  0  0  0
    1.5702   45.5687   62.4432 C   0  0  0  0  0  0  0  0  0  0  0  0
    2.1519   45.9630   61.2784 N   0  0  0  0  0  0  0  0  0  0  0  0
    1.5824   46.7764   60.3995 C   0  0  0  0  0  0  0  0  0  0  0  0
    4.3427   51.2306   61.7139 C   0  0  0  0  0  0  0  0  0  0  0  0
    5.4215   50.4715   62.1631 C   0  0  0  0  0  0  0  0  0  0  0  0
  1  2  1  0
  2  3  1  0
  2  4  1  0
  4  5  1  0
  5  6  1  0
  6  7  1  0
  7  8  2  0
  8  9  1  0
  9 10  2  0
 10 11  1  0
 11 12  1  0
 12 13  2  0
 13 14  1  0
 14 15  2  0
 15 16  1  0
 15 17  1  0
 17 18  2  0
 18 19  1  0
 19 20  1  0
 20 21  1  0
 21 22  1  0
 22 23  2  0
 23 24  1  0
 24 25  2  0
 25 26  1  0
 26 27  2  0
 11 28  2  0
 28 29  1  0
 29  5  2  0
 29  8  1  0
 18 12  1  0
 27 22  1  0
M  END
$$$$
