
     RDKit          3D

 29 32  0  0  0  0  0  0  0  0999 V2000
    0.9904   43.4375   61.7660 C   0  0  0  0  0  0  0  0  0  0  0  0
    0.8990   44.0969   60.4925 N   0  0  0  0  0  0  0  0  0  0  0  0
    2.0124   43.8857   59.6225 C   0  0  0  0  0  0  0  0  0  0  0  0
    0.4674   45.4614   60.5960 C   0  0  0  0  0  0  0  0  0  0  0  0
    0.0378   45.9261   59.2367 C   0  0  0  0  0  0  0  0  0  0  0  0
   -0.4205   45.1634   58.2270 N   0  0  0  0  0  0  0  0  0  0  0  0
   -0.6798   45.9736   57.2187 N   0  0  0  0  0  0  0  0  0  0  0  0
   -0.3985   47.2574   57.5513 C   0  0  0  0  0  0  0  0  0  0  0  0
   -0.4831   48.4659   56.8900 C   0  0  0  0  0  0  0  0  0  0  0  0
   -0.1129   49.6464   57.5070 C   0  0  0  0  0  0  0  0  0  0  0  0
    0.3540   49.6583   58.8047 C   0  0  0  0  0  0  0  0  0  0  0  0
    0.7565   50.8906   59.4926 C   0  0  0  0  0  0  0  0  0  0  0  0
   -0.0295   52.0144   59.5115 C   0  0  0  0  0  0  0  0  0  0  0  0
    0.3244   53.1845   60.1494 C   0  0  0  0  0  0  0  0  0  0  0  0
    1.5303   53.2574   60.8138 C   0  0  0  0  0  0  0  0  0  0  0  0
    1.8881   54.3920   61.4395 F   0  0  0  0  0  0  0  0  0  0  0  0
    2.3347   52.1237   60.8011 C   0  0  0  0  0  0  0  0  0  0  0  0
    1.9881   50.9471   60.1640 C   0  0  0  0  0  0  0  0  0  0  0  0
    2.7428   49.8197   60.1292 O   0  0  0  0  0  0  0  0  0  0  0  0
    3.9778   49.4994   60.6268 C   0  0  0  0  0  0  0  0  0  0  0  0
    5.0410   49.1197   59.6557 C   0  0  0  0  0  0  0  0  0  0  0  0
    4.8893   47.7201   59.1639 C   0  0  0  0  0  0  0  0  0  0  0  0
    5.7165   47.2416   58.1563 C   0  0  0  0  0  0  0  0  0  0  0  0
    5.6043   45.9573   57.6799 C   0  0  0  0  0  0  0  0  0  0  0  0
    4.6511   45.1200   58.2100 C   0  0  0  0  0  0  0  0  0  0  0  0
    3.8569   45.6190   59.1953 N   0  0  0  0  0  0  0  0  0  0  0  0
    3.9466   46.8537   59.6706 C   0  0  0  0  0  0  0  0  0  0  0  0
    0.4341   48.4505   59.4535 C   0  0  0  0  0  0  0  0  0  0  0  0
    0.0660   47.2499   58.8497 C   0  0  0  0  0  0  0  0  0  0  0  0
  1  2  1  0
  2  3  1  0
  2  4  1  0
  4  5  1  0
  5  6  1  0
  6  7  1  0
  7  8  2  0
  8  9  1  0
  9 10  2  0
 10 11  1  0
 11 12  1  0
 12 13  2  0
 13 14  1  0
 14 15  2  0
 15 16  1  0
 15 17  1  0
 17 18  2  0
 18 19  1  0
 19 20  1  0
 20 21  1  0
 21 22  1  0
 22 23  2  0
 23 24  1  0
 24 25  2  0
 25 26  1  0
 26 27  2  0
 11 28  2  0
 28 29  1  0
 29  5  2  0
 29  8  1  0
 18 12  1  0
 27 22  1  0
M  END
$$$$
