
     RDKit          3D

 29 32  0  0  0  0  0  0  0  0999 V2000
    2.8947   44.3243   61.8793 C   0  0  0  0  0  0  0  0  0  0  0  0
    1.9304   44.9480   62.7430 N   0  0  0  0  0  0  0  0  0  0  0  0
    0.8189   44.1245   63.1005 C   0  0  0  0  0  0  0  0  0  0  0  0
    1.5847   46.2784   62.3314 C   0  0  0  0  0  0  0  0  0  0  0  0
    1.0367   46.2150   60.9372 C   0  0  0  0  0  0  0  0  0  0  0  0
    0.6886   45.1097   60.2529 N   0  0  0  0  0  0  0  0  0  0  0  0
    0.2582   45.5075   59.0709 N   0  0  0  0  0  0  0  0  0  0  0  0
    0.3185   46.8580   58.9689 C   0  0  0  0  0  0  0  0  0  0  0  0
    0.0006   47.7657   57.9790 C   0  0  0  0  0  0  0  0  0  0  0  0
    0.1757   49.1236   58.1706 C   0  0  0  0  0  0  0  0  0  0  0  0
    0.6741   49.6191   59.3573 C   0  0  0  0  0  0  0  0  0  0  0  0
    0.8741   51.0531   59.5975 C   0  0  0  0  0  0  0  0  0  0  0  0
   -0.1006   51.9851   59.3474 C   0  0  0  0  0  0  0  0  0  0  0  0
    0.0610   53.3373   59.5636 C   0  0  0  0  0  0  0  0  0  0  0  0
    1.2589   53.8072   60.0586 C   0  0  0  0  0  0  0  0  0  0  0  0
    1.4301   55.1230   60.2737 F   0  0  0  0  0  0  0  0  0  0  0  0
    2.2536   52.8708   60.3158 C   0  0  0  0  0  0  0  0  0  0  0  0
    2.1006   51.5140   60.1016 C   0  0  0  0  0  0  0  0  0  0  0  0
    3.0445   50.5686   60.3406 O   0  0  0  0  0  0  0  0  0  0  0  0
    4.3715   50.6281   60.6735 C   0  0  0  0  0  0  0  0  0  0  0  0
    4.9717   49.4455   61.3508 C   0  0  0  0  0  0  0  0  0  0  0  0
    5.0718   49.6253   62.8278 C   0  0  0  0  0  0  0  0  0  0  0  0
    5.8279   48.7428   63.5880 C   0  0  0  0  0  0  0  0  0  0  0  0
    5.9420   48.8795   64.9508 C   0  0  0  0  0  0  0  0  0  0  0  0
    5.2939   49.9139   65.5836 C   0  0  0  0  0  0  0  0  0  0  0  0
    4.5616   50.7607   64.8107 N   0  0  0  0  0  0  0  0  0  0  0  0
    4.4369   50.6488   63.4953 C   0  0  0  0  0  0  0  0  0  0  0  0
    0.9872   48.7075   60.3355 C   0  0  0  0  0  0  0  0  0  0  0  0
    0.8181   47.3352   60.1623 C   0  0  0  0  0  0  0  0  0  0  0  0
  1  2  1  0
  2  3  1  0
  2  4  1  0
  4  5  1  0
  5  6  1  0
  6  7  1  0
  7  8  2  0
  8  9  1  0
  9 10  2  0
 10 11  1  0
 11 12  1  0
 12 13  2  0
 13 14  1  0
 14 15  2  0
 15 16  1  0
 15 17  1  0
 17 18  2  0
 18 19  1  0
 19 20  1  0
 20 21  1  0
 21 22  1  0
 22 23  2  0
 23 24  1  0
 24 25  2  0
 25 26  1  0
 26 27  2  0
 11 28  2  0
 28 29  1  0
 29  5  2  0
 29  8  1  0
 18 12  1  0
 27 22  1  0
M  END
$$$$
