
     RDKit          3D

 29 32  0  0  0  0  0  0  0  0999 V2000
    5.5574   46.9246   60.0926 C   0  0  0  0  0  0  0  0  0  0  0  0
    5.5520   46.3341   58.7826 N   0  0  0  0  0  0  0  0  0  0  0  0
    6.7978   46.3995   58.0862 C   0  0  0  0  0  0  0  0  0  0  0  0
    4.4070   46.7075   58.0026 C   0  0  0  0  0  0  0  0  0  0  0  0
    3.1720   46.3555   58.7765 C   0  0  0  0  0  0  0  0  0  0  0  0
    2.7427   45.1218   59.1000 N   0  0  0  0  0  0  0  0  0  0  0  0
    1.6212   45.2695   59.7790 N   0  0  0  0  0  0  0  0  0  0  0  0
    1.3075   46.5823   59.9060 C   0  0  0  0  0  0  0  0  0  0  0  0
    0.2737   47.2736   60.5044 C   0  0  0  0  0  0  0  0  0  0  0  0
    0.2212   48.6546   60.4684 C   0  0  0  0  0  0  0  0  0  0  0  0
    1.1998   49.3902   59.8333 C   0  0  0  0  0  0  0  0  0  0  0  0
    1.1782   50.8565   59.7738 C   0  0  0  0  0  0  0  0  0  0  0  0
    0.1323   51.5565   59.2288 C   0  0  0  0  0  0  0  0  0  0  0  0
    0.0867   52.9330   59.1600 C   0  0  0  0  0  0  0  0  0  0  0  0
    1.1375   53.6728   59.6595 C   0  0  0  0  0  0  0  0  0  0  0  0
    1.1062   55.0152   59.5986 F   0  0  0  0  0  0  0  0  0  0  0  0
    2.2027   52.9729   60.2145 C   0  0  0  0  0  0  0  0  0  0  0  0
    2.2570   51.5938   60.2871 C   0  0  0  0  0  0  0  0  0  0  0  0
    3.2759   50.8738   60.8213 O   0  0  0  0  0  0  0  0  0  0  0  0
    4.5364   51.2002   61.2455 C   0  0  0  0  0  0  0  0  0  0  0  0
    5.4424   50.0900   61.6507 C   0  0  0  0  0  0  0  0  0  0  0  0
    5.4837   49.8997   63.1291 C   0  0  0  0  0  0  0  0  0  0  0  0
    6.6009   49.3329   63.7282 C   0  0  0  0  0  0  0  0  0  0  0  0
    6.6725   49.1436   65.0877 C   0  0  0  0  0  0  0  0  0  0  0  0
    5.6148   49.5228   65.8801 C   0  0  0  0  0  0  0  0  0  0  0  0
    4.5356   50.0749   65.2626 N   0  0  0  0  0  0  0  0  0  0  0  0
    4.4441   50.2672   63.9538 C   0  0  0  0  0  0  0  0  0  0  0  0
    2.2239   48.6927   59.2412 C   0  0  0  0  0  0  0  0  0  0  0  0
    2.2953   47.3012   59.2663 C   0  0  0  0  0  0  0  0  0  0  0  0
  1  2  1  0
  2  3  1  0
  2  4  1  0
  4  5  1  0
  5  6  1  0
  6  7  1  0
  7  8  2  0
  8  9  1  0
  9 10  2  0
 10 11  1  0
 11 12  1  0
 12 13  2  0
 13 14  1  0
 14 15  2  0
 15 16  1  0
 15 17  1  0
 17 18  2  0
 18 19  1  0
 19 20  1  0
 20 21  1  0
 21 22  1  0
 22 23  2  0
 23 24  1  0
 24 25  2  0
 25 26  1  0
 26 27  2  0
 11 28  2  0
 28 29  1  0
 29  5  2  0
 29  8  1  0
 18 12  1  0
 27 22  1  0
M  END
$$$$
