
     RDKit          3D

 29 32  0  0  0  0  0  0  0  0999 V2000
    7.5891   49.1797   65.1014 C   0  0  0  0  0  0  0  0  0  0  0  0
    7.8007   49.4046   63.6980 N   0  0  0  0  0  0  0  0  0  0  0  0
    8.6581   50.5038   63.3855 C   0  0  0  0  0  0  0  0  0  0  0  0
    6.5889   49.3507   62.9314 C   0  0  0  0  0  0  0  0  0  0  0  0
    6.9425   49.4645   61.4788 C   0  0  0  0  0  0  0  0  0  0  0  0
    8.0622   49.0183   60.8801 N   0  0  0  0  0  0  0  0  0  0  0  0
    7.9646   49.3265   59.6010 N   0  0  0  0  0  0  0  0  0  0  0  0
    6.7972   49.9687   59.3508 C   0  0  0  0  0  0  0  0  0  0  0  0
    6.2095   50.4957   58.2187 C   0  0  0  0  0  0  0  0  0  0  0  0
    4.9727   51.1110   58.2750 C   0  0  0  0  0  0  0  0  0  0  0  0
    4.2827   51.2200   59.4641 C   0  0  0  0  0  0  0  0  0  0  0  0
    2.9686   51.8661   59.5634 C   0  0  0  0  0  0  0  0  0  0  0  0
    2.8241   53.2140   59.7716 C   0  0  0  0  0  0  0  0  0  0  0  0
    1.6024   53.8460   59.8691 C   0  0  0  0  0  0  0  0  0  0  0  0
    0.4445   53.1064   59.7544 C   0  0  0  0  0  0  0  0  0  0  0  0
   -0.7531   53.7096   59.8478 F   0  0  0  0  0  0  0  0  0  0  0  0
    0.5798   51.7391   59.5429 C   0  0  0  0  0  0  0  0  0  0  0  0
    1.8000   51.0974   59.4445 C   0  0  0  0  0  0  0  0  0  0  0  0
    1.9748   49.7676   59.2374 O   0  0  0  0  0  0  0  0  0  0  0  0
    1.1230   48.6953   59.2429 C   0  0  0  0  0  0  0  0  0  0  0  0
    1.6543   47.3884   59.7199 C   0  0  0  0  0  0  0  0  0  0  0  0
    2.5542   46.7415   58.7223 C   0  0  0  0  0  0  0  0  0  0  0  0
    3.7362   46.1410   59.1357 C   0  0  0  0  0  0  0  0  0  0  0  0
    4.5881   45.5354   58.2432 C   0  0  0  0  0  0  0  0  0  0  0  0
    4.2681   45.5201   56.9062 C   0  0  0  0  0  0  0  0  0  0  0  0
    3.1036   46.1168   56.5338 N   0  0  0  0  0  0  0  0  0  0  0  0
    2.2665   46.7068   57.3761 C   0  0  0  0  0  0  0  0  0  0  0  0
    4.8763   50.6925   60.5845 C   0  0  0  0  0  0  0  0  0  0  0  0
    6.1218   50.0685   60.5490 C   0  0  0  0  0  0  0  0  0  0  0  0
  1  2  1  0
  2  3  1  0
  2  4  1  0
  4  5  1  0
  5  6  1  0
  6  7  1  0
  7  8  2  0
  8  9  1  0
  9 10  2  0
 10 11  1  0
 11 12  1  0
 12 13  2  0
 13 14  1  0
 14 15  2  0
 15 16  1  0
 15 17  1  0
 17 18  2  0
 18 19  1  0
 19 20  1  0
 20 21  1  0
 21 22  1  0
 22 23  2  0
 23 24  1  0
 24 25  2  0
 25 26  1  0
 26 27  2  0
 11 28  2  0
 28 29  1  0
 29  5  2  0
 29  8  1  0
 18 12  1  0
 27 22  1  0
M  END
$$$$
