
     RDKit          3D

 29 32  0  0  0  0  0  0  0  0999 V2000
    8.9897   52.7954   61.6023 C   0  0  0  0  0  0  0  0  0  0  0  0
    8.2937   51.5829   61.9347 N   0  0  0  0  0  0  0  0  0  0  0  0
    8.9059   50.7971   62.9589 C   0  0  0  0  0  0  0  0  0  0  0  0
    7.8722   50.8424   60.7802 C   0  0  0  0  0  0  0  0  0  0  0  0
    7.0220   49.6955   61.2382 C   0  0  0  0  0  0  0  0  0  0  0  0
    7.4468   48.5262   61.7515 N   0  0  0  0  0  0  0  0  0  0  0  0
    6.3722   47.8087   62.0177 N   0  0  0  0  0  0  0  0  0  0  0  0
    5.2476   48.4897   61.6866 C   0  0  0  0  0  0  0  0  0  0  0  0
    3.8971   48.2131   61.7550 C   0  0  0  0  0  0  0  0  0  0  0  0
    2.9563   49.1322   61.3292 C   0  0  0  0  0  0  0  0  0  0  0  0
    3.3337   50.3577   60.8213 C   0  0  0  0  0  0  0  0  0  0  0  0
    2.3646   51.3585   60.3595 C   0  0  0  0  0  0  0  0  0  0  0  0
    2.4894   52.6934   60.6487 C   0  0  0  0  0  0  0  0  0  0  0  0
    1.5940   53.6539   60.2280 C   0  0  0  0  0  0  0  0  0  0  0  0
    0.5028   53.2802   59.4726 C   0  0  0  0  0  0  0  0  0  0  0  0
   -0.3782   54.2061   59.0562 F   0  0  0  0  0  0  0  0  0  0  0  0
    0.3670   51.9294   59.1736 C   0  0  0  0  0  0  0  0  0  0  0  0
    1.2591   50.9600   59.5915 C   0  0  0  0  0  0  0  0  0  0  0  0
    1.1636   49.6337   59.3202 O   0  0  0  0  0  0  0  0  0  0  0  0
    0.1994   48.8623   58.7279 C   0  0  0  0  0  0  0  0  0  0  0  0
    0.5471   47.4546   58.3888 C   0  0  0  0  0  0  0  0  0  0  0  0
    0.6244   46.5810   59.5949 C   0  0  0  0  0  0  0  0  0  0  0  0
    1.0836   45.2753   59.4817 C   0  0  0  0  0  0  0  0  0  0  0  0
    1.1682   44.4434   60.5725 C   0  0  0  0  0  0  0  0  0  0  0  0
    0.7904   44.9094   61.8097 C   0  0  0  0  0  0  0  0  0  0  0  0
    0.3453   46.1925   61.8867 N   0  0  0  0  0  0  0  0  0  0  0  0
    0.2550   47.0131   60.8490 C   0  0  0  0  0  0  0  0  0  0  0  0
    4.6797   50.6228   60.7578 C   0  0  0  0  0  0  0  0  0  0  0  0
    5.6438   49.7102   61.1816 C   0  0  0  0  0  0  0  0  0  0  0  0
  1  2  1  0
  2  3  1  0
  2  4  1  0
  4  5  1  0
  5  6  1  0
  6  7  1  0
  7  8  2  0
  8  9  1  0
  9 10  2  0
 10 11  1  0
 11 12  1  0
 12 13  2  0
 13 14  1  0
 14 15  2  0
 15 16  1  0
 15 17  1  0
 17 18  2  0
 18 19  1  0
 19 20  1  0
 20 21  1  0
 21 22  1  0
 22 23  2  0
 23 24  1  0
 24 25  2  0
 25 26  1  0
 26 27  2  0
 11 28  2  0
 28 29  1  0
 29  5  2  0
 29  8  1  0
 18 12  1  0
 27 22  1  0
M  END
$$$$
