
     RDKit          3D

 29 32  0  0  0  0  0  0  0  0999 V2000
    4.5690   50.3227   65.3082 C   0  0  0  0  0  0  0  0  0  0  0  0
    5.8409   50.9904   65.2751 N   0  0  0  0  0  0  0  0  0  0  0  0
    6.0339   51.9718   66.2954 C   0  0  0  0  0  0  0  0  0  0  0  0
    6.2205   51.4113   63.9569 C   0  0  0  0  0  0  0  0  0  0  0  0
    6.1438   50.2263   63.0415 C   0  0  0  0  0  0  0  0  0  0  0  0
    6.9324   49.1359   63.0598 N   0  0  0  0  0  0  0  0  0  0  0  0
    6.5206   48.3458   62.0868 N   0  0  0  0  0  0  0  0  0  0  0  0
    5.4731   48.9013   61.4296 C   0  0  0  0  0  0  0  0  0  0  0  0
    4.6864   48.5120   60.3645 C   0  0  0  0  0  0  0  0  0  0  0  0
    3.6595   49.3142   59.9028 C   0  0  0  0  0  0  0  0  0  0  0  0
    3.3848   50.5315   60.4899 C   0  0  0  0  0  0  0  0  0  0  0  0
    2.3040   51.4102   60.0278 C   0  0  0  0  0  0  0  0  0  0  0  0
    2.4430   52.7726   59.9530 C   0  0  0  0  0  0  0  0  0  0  0  0
    1.4443   53.6207   59.5231 C   0  0  0  0  0  0  0  0  0  0  0  0
    0.2274   53.0974   59.1406 C   0  0  0  0  0  0  0  0  0  0  0  0
   -0.7550   53.9127   58.7199 F   0  0  0  0  0  0  0  0  0  0  0  0
    0.0760   51.7174   59.2125 C   0  0  0  0  0  0  0  0  0  0  0  0
    1.0712   50.8602   59.6425 C   0  0  0  0  0  0  0  0  0  0  0  0
    0.9642   49.5098   59.7259 O   0  0  0  0  0  0  0  0  0  0  0  0
   -0.0792   48.6376   59.5647 C   0  0  0  0  0  0  0  0  0  0  0  0
    0.2383   47.2444   59.1454 C   0  0  0  0  0  0  0  0  0  0  0  0
    0.8986   46.4605   60.2284 C   0  0  0  0  0  0  0  0  0  0  0  0
    1.3679   45.1784   59.9743 C   0  0  0  0  0  0  0  0  0  0  0  0
    1.9817   44.4286   60.9490 C   0  0  0  0  0  0  0  0  0  0  0  0
    2.1382   44.9551   62.2095 C   0  0  0  0  0  0  0  0  0  0  0  0
    1.6677   46.2130   62.4259 N   0  0  0  0  0  0  0  0  0  0  0  0
    1.0726   46.9548   61.5018 C   0  0  0  0  0  0  0  0  0  0  0  0
    4.1734   50.9094   61.5489 C   0  0  0  0  0  0  0  0  0  0  0  0
    5.2131   50.1156   62.0294 C   0  0  0  0  0  0  0  0  0  0  0  0
  1  2  1  0
  2  3  1  0
  2  4  1  0
  4  5  1  0
  5  6  1  0
  6  7  1  0
  7  8  2  0
  8  9  1  0
  9 10  2  0
 10 11  1  0
 11 12  1  0
 12 13  2  0
 13 14  1  0
 14 15  2  0
 15 16  1  0
 15 17  1  0
 17 18  2  0
 18 19  1  0
 19 20  1  0
 20 21  1  0
 21 22  1  0
 22 23  2  0
 23 24  1  0
 24 25  2  0
 25 26  1  0
 26 27  2  0
 11 28  2  0
 28 29  1  0
 29  5  2  0
 29  8  1  0
 18 12  1  0
 27 22  1  0
M  END
$$$$
