
     RDKit          3D

 29 32  0  0  0  0  0  0  0  0999 V2000
    0.4426   43.4659   60.9308 C   0  0  0  0  0  0  0  0  0  0  0  0
   -0.0340   44.6765   60.3207 N   0  0  0  0  0  0  0  0  0  0  0  0
    0.1233   44.7398   58.9021 C   0  0  0  0  0  0  0  0  0  0  0  0
    0.3744   45.8587   61.0240 C   0  0  0  0  0  0  0  0  0  0  0  0
    1.8223   46.1100   60.7261 C   0  0  0  0  0  0  0  0  0  0  0  0
    2.8148   45.2014   60.7055 N   0  0  0  0  0  0  0  0  0  0  0  0
    3.9236   45.8483   60.4010 N   0  0  0  0  0  0  0  0  0  0  0  0
    3.6738   47.1686   60.2212 C   0  0  0  0  0  0  0  0  0  0  0  0
    4.4515   48.2624   59.8993 C   0  0  0  0  0  0  0  0  0  0  0  0
    3.8983   49.5240   59.7828 C   0  0  0  0  0  0  0  0  0  0  0  0
    2.5502   49.7343   59.9842 C   0  0  0  0  0  0  0  0  0  0  0  0
    1.9271   51.0581   59.8698 C   0  0  0  0  0  0  0  0  0  0  0  0
    0.7622   51.2669   59.1768 C   0  0  0  0  0  0  0  0  0  0  0  0
    0.1561   52.4993   59.0535 C   0  0  0  0  0  0  0  0  0  0  0  0
    0.7312   53.6013   59.6501 C   0  0  0  0  0  0  0  0  0  0  0  0
    0.1512   54.8087   59.5375 F   0  0  0  0  0  0  0  0  0  0  0  0
    1.9123   53.4006   60.3553 C   0  0  0  0  0  0  0  0  0  0  0  0
    2.5267   52.1693   60.4836 C   0  0  0  0  0  0  0  0  0  0  0  0
    3.6771   51.9314   61.1632 O   0  0  0  0  0  0  0  0  0  0  0  0
    4.5466   52.7358   61.8503 C   0  0  0  0  0  0  0  0  0  0  0  0
    5.8342   52.1401   62.3032 C   0  0  0  0  0  0  0  0  0  0  0  0
    5.6853   51.3500   63.5590 C   0  0  0  0  0  0  0  0  0  0  0  0
    6.7758   50.6748   64.0913 C   0  0  0  0  0  0  0  0  0  0  0  0
    6.6740   49.9379   65.2471 C   0  0  0  0  0  0  0  0  0  0  0  0
    5.4650   49.8634   65.8975 C   0  0  0  0  0  0  0  0  0  0  0  0
    4.4166   50.5359   65.3504 N   0  0  0  0  0  0  0  0  0  0  0  0
    4.4910   51.2526   64.2373 C   0  0  0  0  0  0  0  0  0  0  0  0
    1.7855   48.6393   60.3041 C   0  0  0  0  0  0  0  0  0  0  0  0
    2.3235   47.3597   60.4262 C   0  0  0  0  0  0  0  0  0  0  0  0
  1  2  1  0
  2  3  1  0
  2  4  1  0
  4  5  1  0
  5  6  1  0
  6  7  1  0
  7  8  2  0
  8  9  1  0
  9 10  2  0
 10 11  1  0
 11 12  1  0
 12 13  2  0
 13 14  1  0
 14 15  2  0
 15 16  1  0
 15 17  1  0
 17 18  2  0
 18 19  1  0
 19 20  1  0
 20 21  1  0
 21 22  1  0
 22 23  2  0
 23 24  1  0
 24 25  2  0
 25 26  1  0
 26 27  2  0
 11 28  2  0
 28 29  1  0
 29  5  2  0
 29  8  1  0
 18 12  1  0
 27 22  1  0
M  END
$$$$
