
     RDKit          3D

 29 32  0  0  0  0  0  0  0  0999 V2000
    6.3095   50.1127   65.7678 C   0  0  0  0  0  0  0  0  0  0  0  0
    5.7713   51.2366   65.0523 N   0  0  0  0  0  0  0  0  0  0  0  0
    4.3458   51.2672   64.9610 C   0  0  0  0  0  0  0  0  0  0  0  0
    6.4582   51.4998   63.8203 C   0  0  0  0  0  0  0  0  0  0  0  0
    6.3072   50.3033   62.9294 C   0  0  0  0  0  0  0  0  0  0  0  0
    7.0643   49.1907   62.9317 N   0  0  0  0  0  0  0  0  0  0  0  0
    6.5874   48.3978   61.9913 N   0  0  0  0  0  0  0  0  0  0  0  0
    5.5280   48.9734   61.3713 C   0  0  0  0  0  0  0  0  0  0  0  0
    4.6842   48.5906   60.3485 C   0  0  0  0  0  0  0  0  0  0  0  0
    3.6612   49.4152   59.9186 C   0  0  0  0  0  0  0  0  0  0  0  0
    3.4477   50.6491   60.4965 C   0  0  0  0  0  0  0  0  0  0  0  0
    2.3730   51.5518   60.0673 C   0  0  0  0  0  0  0  0  0  0  0  0
    2.4941   52.9171   60.1156 C   0  0  0  0  0  0  0  0  0  0  0  0
    1.5006   53.7874   59.7193 C   0  0  0  0  0  0  0  0  0  0  0  0
    0.3082   53.2849   59.2433 C   0  0  0  0  0  0  0  0  0  0  0  0
   -0.6688   54.1219   58.8540 F   0  0  0  0  0  0  0  0  0  0  0  0
    0.1751   51.9022   59.1900 C   0  0  0  0  0  0  0  0  0  0  0  0
    1.1652   51.0227   59.5855 C   0  0  0  0  0  0  0  0  0  0  0  0
    1.0756   49.6690   59.5480 O   0  0  0  0  0  0  0  0  0  0  0  0
    0.0225   48.7988   59.4522 C   0  0  0  0  0  0  0  0  0  0  0  0
    0.3195   47.3862   59.0859 C   0  0  0  0  0  0  0  0  0  0  0  0
    0.8407   46.5968   60.2386 C   0  0  0  0  0  0  0  0  0  0  0  0
    1.3053   45.3026   60.0442 C   0  0  0  0  0  0  0  0  0  0  0  0
    1.7927   44.5473   61.0839 C   0  0  0  0  0  0  0  0  0  0  0  0
    1.8240   45.0805   62.3509 C   0  0  0  0  0  0  0  0  0  0  0  0
    1.3618   46.3503   62.5078 N   0  0  0  0  0  0  0  0  0  0  0  0
    0.8873   47.0975   61.5205 C   0  0  0  0  0  0  0  0  0  0  0  0
    4.2929   51.0203   61.5132 C   0  0  0  0  0  0  0  0  0  0  0  0
    5.3297   50.2040   61.9611 C   0  0  0  0  0  0  0  0  0  0  0  0
  1  2  1  0
  2  3  1  0
  2  4  1  0
  4  5  1  0
  5  6  1  0
  6  7  1  0
  7  8  2  0
  8  9  1  0
  9 10  2  0
 10 11  1  0
 11 12  1  0
 12 13  2  0
 13 14  1  0
 14 15  2  0
 15 16  1  0
 15 17  1  0
 17 18  2  0
 18 19  1  0
 19 20  1  0
 20 21  1  0
 21 22  1  0
 22 23  2  0
 23 24  1  0
 24 25  2  0
 25 26  1  0
 26 27  2  0
 11 28  2  0
 28 29  1  0
 29  5  2  0
 29  8  1  0
 18 12  1  0
 27 22  1  0
M  END
$$$$
