
     RDKit          3D

 17 18  0  0  0  0  0  0  0  0999 V2000
   26.1010   -3.8912  -33.9227 C   0  0  0  0  0  0  0  0  0  0  0  0
   26.8813   -2.9839  -33.0566 C   0  0  0  0  0  0  0  0  0  0  0  0
   26.4232   -2.5790  -31.9602 O   0  0  0  0  0  0  0  0  0  0  0  0
   28.2207   -2.5393  -33.4749 C   0  0  0  0  0  0  0  0  0  0  0  0
   29.0707   -1.7262  -32.7547 C   0  0  0  0  0  0  0  0  0  0  0  0
   30.2205   -1.5501  -33.4955 C   0  0  0  0  0  0  0  0  0  0  0  0
   30.0653   -2.2507  -34.6519 N   0  0  0  0  0  0  0  0  0  0  0  0
   31.1695   -2.4024  -35.9585 S   0  0  0  0  0  6  0  0  0  0  0  0
   31.0175   -3.7698  -36.5604 O   0  0  0  0  0  0  0  0  0  0  0  0
   32.5653   -2.3453  -35.3713 O   0  0  0  0  0  0  0  0  0  0  0  0
   30.9441   -1.1852  -37.1781 C   0  0  0  0  0  0  0  0  0  0  0  0
   30.0656   -1.3431  -38.2307 C   0  0  0  0  0  0  0  0  0  0  0  0
   29.9138   -0.3538  -39.1801 C   0  0  0  0  0  0  0  0  0  0  0  0
   30.6217    0.8321  -39.1313 C   0  0  0  0  0  0  0  0  0  0  0  0
   31.5004    0.9910  -38.0792 C   0  0  0  0  0  0  0  0  0  0  0  0
   31.6507   -0.0005  -37.1302 C   0  0  0  0  0  0  0  0  0  0  0  0
   28.8601   -2.8458  -34.6374 C   0  0  0  0  0  0  0  0  0  0  0  0
  1  2  1  0
  2  3  2  0
  2  4  1  0
  4  5  1  0
  5  6  2  0
  6  7  1  0
  7  8  1  0
  8  9  2  0
  8 10  2  0
  8 11  1  0
 11 12  2  0
 12 13  1  0
 13 14  2  0
 14 15  1  0
 15 16  2  0
  7 17  1  0
 17  4  2  0
 16 11  1  0
M  END
$$$$
