
     RDKit          3D

 17 18  0  0  0  0  0  0  0  0999 V2000
   25.6356   -2.9559  -31.8322 C   0  0  0  0  0  0  0  0  0  0  0  0
   26.2560   -3.2668  -33.1362 C   0  0  0  0  0  0  0  0  0  0  0  0
   25.6416   -3.9316  -34.0058 O   0  0  0  0  0  0  0  0  0  0  0  0
   27.6181   -2.7946  -33.4338 C   0  0  0  0  0  0  0  0  0  0  0  0
   28.3874   -1.9726  -32.6369 C   0  0  0  0  0  0  0  0  0  0  0  0
   29.5935   -1.7695  -33.2740 C   0  0  0  0  0  0  0  0  0  0  0  0
   29.5519   -2.4627  -34.4444 N   0  0  0  0  0  0  0  0  0  0  0  0
   30.7675   -2.5831  -35.6516 S   0  0  0  0  0  6  0  0  0  0  0  0
   30.7206   -3.9616  -36.2455 O   0  0  0  0  0  0  0  0  0  0  0  0
   32.1054   -2.4639  -34.9501 O   0  0  0  0  0  0  0  0  0  0  0  0
   30.5983   -1.3885  -36.9022 C   0  0  0  0  0  0  0  0  0  0  0  0
   31.2438   -0.1695  -36.8561 C   0  0  0  0  0  0  0  0  0  0  0  0
   31.0848    0.7540  -37.8686 C   0  0  0  0  0  0  0  0  0  0  0  0
   30.2830    0.5142  -38.9683 C   0  0  0  0  0  0  0  0  0  0  0  0
   29.6371   -0.7044  -39.0153 C   0  0  0  0  0  0  0  0  0  0  0  0
   29.7978   -1.6271  -38.0009 C   0  0  0  0  0  0  0  0  0  0  0  0
   28.3612   -3.0794  -34.5387 C   0  0  0  0  0  0  0  0  0  0  0  0
  1  2  1  0
  2  3  2  0
  2  4  1  0
  4  5  1  0
  5  6  2  0
  6  7  1  0
  7  8  1  0
  8  9  2  0
  8 10  2  0
  8 11  1  0
 11 12  2  0
 12 13  1  0
 13 14  2  0
 14 15  1  0
 15 16  2  0
  7 17  1  0
 17  4  2  0
 16 11  1  0
M  END
$$$$
