
     RDKit          3D

 17 18  0  0  0  0  0  0  0  0999 V2000
   24.7003   -2.5594  -33.8586 C   0  0  0  0  0  0  0  0  0  0  0  0
   25.6157   -2.6690  -32.7044 C   0  0  0  0  0  0  0  0  0  0  0  0
   25.2170   -3.1103  -31.5989 O   0  0  0  0  0  0  0  0  0  0  0  0
   27.0224   -2.2570  -32.8397 C   0  0  0  0  0  0  0  0  0  0  0  0
   27.9104   -2.0403  -31.8069 C   0  0  0  0  0  0  0  0  0  0  0  0
   29.1197   -1.6693  -32.3562 C   0  0  0  0  0  0  0  0  0  0  0  0
   28.9623   -1.6624  -33.7080 N   0  0  0  0  0  0  0  0  0  0  0  0
   30.1263   -1.2792  -34.9112 S   0  0  0  0  0  6  0  0  0  0  0  0
   31.4142   -0.9082  -34.2336 O   0  0  0  0  0  0  0  0  0  0  0  0
   29.6401   -0.0312  -35.6202 O   0  0  0  0  0  0  0  0  0  0  0  0
   30.3945   -2.5809  -36.0307 C   0  0  0  0  0  0  0  0  0  0  0  0
   29.4462   -2.9732  -36.9536 C   0  0  0  0  0  0  0  0  0  0  0  0
   29.6958   -4.0119  -37.8266 C   0  0  0  0  0  0  0  0  0  0  0  0
   30.8902   -4.7068  -37.8260 C   0  0  0  0  0  0  0  0  0  0  0  0
   31.8391   -4.3154  -36.9037 C   0  0  0  0  0  0  0  0  0  0  0  0
   31.5871   -3.2755  -36.0309 C   0  0  0  0  0  0  0  0  0  0  0  0
   27.6983   -2.0167  -33.9972 C   0  0  0  0  0  0  0  0  0  0  0  0
  1  2  1  0
  2  3  2  0
  2  4  1  0
  4  5  1  0
  5  6  2  0
  6  7  1  0
  7  8  1  0
  8  9  2  0
  8 10  2  0
  8 11  1  0
 11 12  2  0
 12 13  1  0
 13 14  2  0
 14 15  1  0
 15 16  2  0
  7 17  1  0
 17  4  2  0
 16 11  1  0
M  END
$$$$
