
     RDKit          3D

 17 18  0  0  0  0  0  0  0  0999 V2000
   20.0549  -33.6210   11.1260 C   0  0  0  0  0  0  0  0  0  0  0  0
   19.7496  -33.1351   12.4872 C   0  0  0  0  0  0  0  0  0  0  0  0
   18.5652  -32.9565   12.8628 O   0  0  0  0  0  0  0  0  0  0  0  0
   20.8444  -32.8517   13.4296 C   0  0  0  0  0  0  0  0  0  0  0  0
   20.7222  -32.2406   14.6600 C   0  0  0  0  0  0  0  0  0  0  0  0
   21.9783  -32.1643   15.2240 C   0  0  0  0  0  0  0  0  0  0  0  0
   22.8501  -32.7243   14.3417 N   0  0  0  0  0  0  0  0  0  0  0  0
   24.5498  -32.9115   14.5013 S   0  0  0  0  0  6  0  0  0  0  0  0
   24.9009  -32.8910   15.9613 O   0  0  0  0  0  0  0  0  0  0  0  0
   25.1928  -31.6838   13.8886 O   0  0  0  0  0  0  0  0  0  0  0  0
   25.1407  -34.3709   13.7659 C   0  0  0  0  0  0  0  0  0  0  0  0
   25.2380  -35.5625   14.4554 C   0  0  0  0  0  0  0  0  0  0  0  0
   25.7123  -36.7010   13.8371 C   0  0  0  0  0  0  0  0  0  0  0  0
   26.1103  -36.7119   12.5138 C   0  0  0  0  0  0  0  0  0  0  0  0
   26.0134  -35.5210   11.8235 C   0  0  0  0  0  0  0  0  0  0  0  0
   25.5384  -34.3829   12.4443 C   0  0  0  0  0  0  0  0  0  0  0  0
   22.1651  -33.1377   13.2615 C   0  0  0  0  0  0  0  0  0  0  0  0
  1  2  1  0
  2  3  2  0
  2  4  1  0
  4  5  1  0
  5  6  2  0
  6  7  1  0
  7  8  1  0
  8  9  2  0
  8 10  2  0
  8 11  1  0
 11 12  2  0
 12 13  1  0
 13 14  2  0
 14 15  1  0
 15 16  2  0
  7 17  1  0
 17  4  2  0
 16 11  1  0
M  END
$$$$
