
     RDKit          3D

 17 18  0  0  0  0  0  0  0  0999 V2000
   20.4466  -29.5128   15.4469 C   0  0  0  0  0  0  0  0  0  0  0  0
   19.7334  -30.1111   14.2999 C   0  0  0  0  0  0  0  0  0  0  0  0
   18.7151  -29.5636   13.8110 O   0  0  0  0  0  0  0  0  0  0  0  0
   20.2150  -31.3711   13.7107 C   0  0  0  0  0  0  0  0  0  0  0  0
   19.6775  -32.0163   12.6165 C   0  0  0  0  0  0  0  0  0  0  0  0
   20.4174  -33.1577   12.3895 C   0  0  0  0  0  0  0  0  0  0  0  0
   21.3922  -33.2004   13.3382 N   0  0  0  0  0  0  0  0  0  0  0  0
   22.6119  -34.3898   13.5553 S   0  0  0  0  0  6  0  0  0  0  0  0
   22.5970  -35.3155   12.3729 O   0  0  0  0  0  0  0  0  0  0  0  0
   22.2133  -35.2228   14.7568 O   0  0  0  0  0  0  0  0  0  0  0  0
   24.1960  -33.7041   13.7563 C   0  0  0  0  0  0  0  0  0  0  0  0
   25.1380  -33.7039   12.7476 C   0  0  0  0  0  0  0  0  0  0  0  0
   26.3858  -33.1497   12.9449 C   0  0  0  0  0  0  0  0  0  0  0  0
   26.7568  -32.5727   14.1445 C   0  0  0  0  0  0  0  0  0  0  0  0
   25.8157  -32.5723   15.1538 C   0  0  0  0  0  0  0  0  0  0  0  0
   24.5674  -33.1276   14.9540 C   0  0  0  0  0  0  0  0  0  0  0  0
   21.2686  -32.1234   14.1330 C   0  0  0  0  0  0  0  0  0  0  0  0
  1  2  1  0
  2  3  2  0
  2  4  1  0
  4  5  1  0
  5  6  2  0
  6  7  1  0
  7  8  1  0
  8  9  2  0
  8 10  2  0
  8 11  1  0
 11 12  2  0
 12 13  1  0
 13 14  2  0
 14 15  1  0
 15 16  2  0
  7 17  1  0
 17  4  2  0
 16 11  1  0
M  END
$$$$
