
     RDKit          3D

 17 18  0  0  0  0  0  0  0  0999 V2000
   26.3122   -4.0744  -34.1669 C   0  0  0  0  0  0  0  0  0  0  0  0
   26.9794   -3.0983  -33.2813 C   0  0  0  0  0  0  0  0  0  0  0  0
   26.4465   -2.7251  -32.2078 O   0  0  0  0  0  0  0  0  0  0  0  0
   28.2924   -2.5460  -33.6527 C   0  0  0  0  0  0  0  0  0  0  0  0
   29.0504   -1.6723  -32.9014 C   0  0  0  0  0  0  0  0  0  0  0  0
   30.2066   -1.4008  -33.6023 C   0  0  0  0  0  0  0  0  0  0  0  0
   30.1464   -2.1045  -34.7657 N   0  0  0  0  0  0  0  0  0  0  0  0
   31.3021   -2.1598  -36.0348 S   0  0  0  0  0  6  0  0  0  0  0  0
   31.2736   -3.5286  -36.6519 O   0  0  0  0  0  0  0  0  0  0  0  0
   32.6691   -2.0045  -35.3997 O   0  0  0  0  0  0  0  0  0  0  0  0
   31.0271   -0.9506  -37.2521 C   0  0  0  0  0  0  0  0  0  0  0  0
   30.1010   -1.1120  -38.2626 C   0  0  0  0  0  0  0  0  0  0  0  0
   29.9107   -0.1290  -39.2117 C   0  0  0  0  0  0  0  0  0  0  0  0
   30.6254    1.0537  -39.2040 C   0  0  0  0  0  0  0  0  0  0  0  0
   31.5516    1.2162  -38.1940 C   0  0  0  0  0  0  0  0  0  0  0  0
   31.7403    0.2310  -37.2453 C   0  0  0  0  0  0  0  0  0  0  0  0
   28.9926   -2.7936  -34.7940 C   0  0  0  0  0  0  0  0  0  0  0  0
  1  2  1  0
  2  3  2  0
  2  4  1  0
  4  5  1  0
  5  6  2  0
  6  7  1  0
  7  8  1  0
  8  9  2  0
  8 10  2  0
  8 11  1  0
 11 12  2  0
 12 13  1  0
 13 14  2  0
 14 15  1  0
 15 16  2  0
  7 17  1  0
 17  4  2  0
 16 11  1  0
M  END
$$$$
