
     RDKit          3D

 17 18  0  0  0  0  0  0  0  0999 V2000
   25.3624   -2.9351  -33.2322 C   0  0  0  0  0  0  0  0  0  0  0  0
   26.3429   -2.5784  -32.1866 C   0  0  0  0  0  0  0  0  0  0  0  0
   26.0681   -2.7044  -30.9682 O   0  0  0  0  0  0  0  0  0  0  0  0
   27.6692   -2.0650  -32.5665 C   0  0  0  0  0  0  0  0  0  0  0  0
   28.6631   -1.6574  -31.7015 C   0  0  0  0  0  0  0  0  0  0  0  0
   29.7426   -1.2483  -32.4560 C   0  0  0  0  0  0  0  0  0  0  0  0
   29.4027   -1.4079  -33.7641 N   0  0  0  0  0  0  0  0  0  0  0  0
   30.3473   -1.0646  -35.1567 S   0  0  0  0  0  6  0  0  0  0  0  0
   31.6960   -0.5741  -34.7141 O   0  0  0  0  0  0  0  0  0  0  0  0
   29.6828    0.0949  -35.8711 O   0  0  0  0  0  0  0  0  0  0  0  0
   30.5267   -2.4377  -36.2066 C   0  0  0  0  0  0  0  0  0  0  0  0
   29.4867   -2.9298  -36.9689 C   0  0  0  0  0  0  0  0  0  0  0  0
   29.6677   -4.0226  -37.7912 C   0  0  0  0  0  0  0  0  0  0  0  0
   30.8811   -4.6755  -37.8962 C   0  0  0  0  0  0  0  0  0  0  0  0
   31.9216   -4.1843  -37.1344 C   0  0  0  0  0  0  0  0  0  0  0  0
   31.7381   -3.0904  -36.3121 C   0  0  0  0  0  0  0  0  0  0  0  0
   28.1534   -1.8999  -33.8285 C   0  0  0  0  0  0  0  0  0  0  0  0
  1  2  1  0
  2  3  2  0
  2  4  1  0
  4  5  1  0
  5  6  2  0
  6  7  1  0
  7  8  1  0
  8  9  2  0
  8 10  2  0
  8 11  1  0
 11 12  2  0
 12 13  1  0
 13 14  2  0
 14 15  1  0
 15 16  2  0
  7 17  1  0
 17  4  2  0
 16 11  1  0
M  END
$$$$
