
     RDKit          3D

 17 18  0  0  0  0  0  0  0  0999 V2000
   25.2009   -2.9115  -33.0523 C   0  0  0  0  0  0  0  0  0  0  0  0
   26.1608   -2.5060  -32.0053 C   0  0  0  0  0  0  0  0  0  0  0  0
   25.8652   -2.5838  -30.7878 O   0  0  0  0  0  0  0  0  0  0  0  0
   27.4906   -2.0001  -32.3829 C   0  0  0  0  0  0  0  0  0  0  0  0
   28.4771   -1.5770  -31.5168 C   0  0  0  0  0  0  0  0  0  0  0  0
   29.5634   -1.1823  -32.2690 C   0  0  0  0  0  0  0  0  0  0  0  0
   29.2349   -1.3656  -33.5770 N   0  0  0  0  0  0  0  0  0  0  0  0
   30.1918   -1.0481  -34.9672 S   0  0  0  0  0  6  0  0  0  0  0  0
   31.5236   -0.5148  -34.5230 O   0  0  0  0  0  0  0  0  0  0  0  0
   29.5136    0.0729  -35.7286 O   0  0  0  0  0  0  0  0  0  0  0  0
   30.4147   -2.4508  -35.9687 C   0  0  0  0  0  0  0  0  0  0  0  0
   29.3800   -3.0308  -36.6742 C   0  0  0  0  0  0  0  0  0  0  0  0
   29.5959   -4.1445  -37.4592 C   0  0  0  0  0  0  0  0  0  0  0  0
   30.8405   -4.7325  -37.5813 C   0  0  0  0  0  0  0  0  0  0  0  0
   31.8758   -4.1533  -36.8763 C   0  0  0  0  0  0  0  0  0  0  0  0
   31.6573   -3.0387  -36.0913 C   0  0  0  0  0  0  0  0  0  0  0  0
   27.9860   -1.8583  -33.6433 C   0  0  0  0  0  0  0  0  0  0  0  0
  1  2  1  0
  2  3  2  0
  2  4  1  0
  4  5  1  0
  5  6  2  0
  6  7  1  0
  7  8  1  0
  8  9  2  0
  8 10  2  0
  8 11  1  0
 11 12  2  0
 12 13  1  0
 13 14  2  0
 14 15  1  0
 15 16  2  0
  7 17  1  0
 17  4  2  0
 16 11  1  0
M  END
$$$$
