
     RDKit          3D

 17 18  0  0  0  0  0  0  0  0999 V2000
   18.8747  -34.0889   12.0233 C   0  0  0  0  0  0  0  0  0  0  0  0
   19.1505  -32.8072   12.7040 C   0  0  0  0  0  0  0  0  0  0  0  0
   18.3753  -31.8274   12.5827 O   0  0  0  0  0  0  0  0  0  0  0  0
   20.3520  -32.6634   13.5422 C   0  0  0  0  0  0  0  0  0  0  0  0
   20.6954  -31.5567   14.2903 C   0  0  0  0  0  0  0  0  0  0  0  0
   21.8890  -31.8264   14.9261 C   0  0  0  0  0  0  0  0  0  0  0  0
   22.2620  -33.0844   14.5648 N   0  0  0  0  0  0  0  0  0  0  0  0
   23.6612  -33.9568   15.0448 S   0  0  0  0  0  6  0  0  0  0  0  0
   23.2345  -35.2930   15.5813 O   0  0  0  0  0  0  0  0  0  0  0  0
   24.2779  -33.2053   16.2073 O   0  0  0  0  0  0  0  0  0  0  0  0
   24.8015  -34.1698   13.7508 C   0  0  0  0  0  0  0  0  0  0  0  0
   24.6613  -35.1533   12.7927 C   0  0  0  0  0  0  0  0  0  0  0  0
   25.5878  -35.2915   11.7799 C   0  0  0  0  0  0  0  0  0  0  0  0
   26.6907  -34.4661   11.6696 C   0  0  0  0  0  0  0  0  0  0  0  0
   26.8317  -33.4824   12.6271 C   0  0  0  0  0  0  0  0  0  0  0  0
   25.9032  -33.3460   13.6399 C   0  0  0  0  0  0  0  0  0  0  0  0
   21.3348  -33.5868   13.7312 C   0  0  0  0  0  0  0  0  0  0  0  0
  1  2  1  0
  2  3  2  0
  2  4  1  0
  4  5  1  0
  5  6  2  0
  6  7  1  0
  7  8  1  0
  8  9  2  0
  8 10  2  0
  8 11  1  0
 11 12  2  0
 12 13  1  0
 13 14  2  0
 14 15  1  0
 15 16  2  0
  7 17  1  0
 17  4  2  0
 16 11  1  0
M  END
$$$$
