
     RDKit          3D

 17 18  0  0  0  0  0  0  0  0999 V2000
   25.1406   -3.2946  -32.4818 C   0  0  0  0  0  0  0  0  0  0  0  0
   26.2819   -2.6279  -31.8223 C   0  0  0  0  0  0  0  0  0  0  0  0
   26.1953   -2.2073  -30.6427 O   0  0  0  0  0  0  0  0  0  0  0  0
   27.5487   -2.4472  -32.5500 C   0  0  0  0  0  0  0  0  0  0  0  0
   28.6896   -1.8453  -32.0619 C   0  0  0  0  0  0  0  0  0  0  0  0
   29.6465   -1.8789  -33.0544 C   0  0  0  0  0  0  0  0  0  0  0  0
   29.0875   -2.4954  -34.1313 N   0  0  0  0  0  0  0  0  0  0  0  0
   29.8027   -2.8219  -35.6582 S   0  0  0  0  0  6  0  0  0  0  0  0
   28.7925   -3.5194  -36.5233 O   0  0  0  0  0  0  0  0  0  0  0  0
   30.9232   -3.8145  -35.4224 O   0  0  0  0  0  0  0  0  0  0  0  0
   30.3814   -1.3891  -36.4534 C   0  0  0  0  0  0  0  0  0  0  0  0
   29.7071   -0.7994  -37.5032 C   0  0  0  0  0  0  0  0  0  0  0  0
   30.1982    0.3382  -38.1097 C   0  0  0  0  0  0  0  0  0  0  0  0
   31.3742    0.9416  -37.7064 C   0  0  0  0  0  0  0  0  0  0  0  0
   32.0493    0.3528  -36.6566 C   0  0  0  0  0  0  0  0  0  0  0  0
   31.5558   -0.7858  -36.0512 C   0  0  0  0  0  0  0  0  0  0  0  0
   27.8239   -2.8369  -33.8254 C   0  0  0  0  0  0  0  0  0  0  0  0
  1  2  1  0
  2  3  2  0
  2  4  1  0
  4  5  1  0
  5  6  2  0
  6  7  1  0
  7  8  1  0
  8  9  2  0
  8 10  2  0
  8 11  1  0
 11 12  2  0
 12 13  1  0
 13 14  2  0
 14 15  1  0
 15 16  2  0
  7 17  1  0
 17  4  2  0
 16 11  1  0
M  END
$$$$
