
     RDKit          3D

 17 18  0  0  0  0  0  0  0  0999 V2000
   26.1091   -3.5486  -34.1003 C   0  0  0  0  0  0  0  0  0  0  0  0
   26.8589   -2.9766  -32.9633 C   0  0  0  0  0  0  0  0  0  0  0  0
   26.4065   -3.0311  -31.7936 O   0  0  0  0  0  0  0  0  0  0  0  0
   28.1606   -2.3285  -33.1924 C   0  0  0  0  0  0  0  0  0  0  0  0
   28.9364   -1.7005  -32.2405 C   0  0  0  0  0  0  0  0  0  0  0  0
   30.0732   -1.2281  -32.8620 C   0  0  0  0  0  0  0  0  0  0  0  0
   29.9837   -1.5682  -34.1767 N   0  0  0  0  0  0  0  0  0  0  0  0
   31.1056   -1.2454  -35.4363 S   0  0  0  0  0  6  0  0  0  0  0  0
   32.4781   -1.6383  -34.9702 O   0  0  0  0  0  0  0  0  0  0  0  0
   31.1338    0.2567  -35.6339 O   0  0  0  0  0  0  0  0  0  0  0  0
   30.7180   -2.0725  -36.9146 C   0  0  0  0  0  0  0  0  0  0  0  0
   31.1604   -3.3509  -37.1877 C   0  0  0  0  0  0  0  0  0  0  0  0
   30.8319   -3.9753  -38.3732 C   0  0  0  0  0  0  0  0  0  0  0  0
   30.0536   -3.3653  -39.3386 C   0  0  0  0  0  0  0  0  0  0  0  0
   29.6106   -2.0870  -39.0665 C   0  0  0  0  0  0  0  0  0  0  0  0
   29.9408   -1.4641  -37.8793 C   0  0  0  0  0  0  0  0  0  0  0  0
   28.8309   -2.2309  -34.3736 C   0  0  0  0  0  0  0  0  0  0  0  0
  1  2  1  0
  2  3  2  0
  2  4  1  0
  4  5  1  0
  5  6  2  0
  6  7  1  0
  7  8  1  0
  8  9  2  0
  8 10  2  0
  8 11  1  0
 11 12  2  0
 12 13  1  0
 13 14  2  0
 14 15  1  0
 15 16  2  0
  7 17  1  0
 17  4  2  0
 16 11  1  0
M  END
$$$$
