
     RDKit          3D

 17 18  0  0  0  0  0  0  0  0999 V2000
   20.1662  -34.8092   11.9506 C   0  0  0  0  0  0  0  0  0  0  0  0
   19.4342  -33.6077   12.4008 C   0  0  0  0  0  0  0  0  0  0  0  0
   18.2266  -33.4340   12.1050 O   0  0  0  0  0  0  0  0  0  0  0  0
   20.1211  -32.5886   13.2111 C   0  0  0  0  0  0  0  0  0  0  0  0
   19.5628  -31.4279   13.7041 C   0  0  0  0  0  0  0  0  0  0  0  0
   20.5374  -30.7522   14.4078 C   0  0  0  0  0  0  0  0  0  0  0  0
   21.6733  -31.4988   14.3398 N   0  0  0  0  0  0  0  0  0  0  0  0
   23.2098  -31.1605   15.0283 S   0  0  0  0  0  6  0  0  0  0  0  0
   23.0535  -31.0384   16.5169 O   0  0  0  0  0  0  0  0  0  0  0  0
   23.6311  -29.7935   14.5281 O   0  0  0  0  0  0  0  0  0  0  0  0
   24.4002  -32.3688   14.6504 C   0  0  0  0  0  0  0  0  0  0  0  0
   25.1024  -32.3726   13.4624 C   0  0  0  0  0  0  0  0  0  0  0  0
   26.0404  -33.3491   13.1980 C   0  0  0  0  0  0  0  0  0  0  0  0
   26.3250  -34.3623   14.0937 C   0  0  0  0  0  0  0  0  0  0  0  0
   25.6234  -34.3594   15.2821 C   0  0  0  0  0  0  0  0  0  0  0  0
   24.6851  -33.3810   15.5444 C   0  0  0  0  0  0  0  0  0  0  0  0
   21.4204  -32.6045   13.6185 C   0  0  0  0  0  0  0  0  0  0  0  0
  1  2  1  0
  2  3  2  0
  2  4  1  0
  4  5  1  0
  5  6  2  0
  6  7  1  0
  7  8  1  0
  8  9  2  0
  8 10  2  0
  8 11  1  0
 11 12  2  0
 12 13  1  0
 13 14  2  0
 14 15  1  0
 15 16  2  0
  7 17  1  0
 17  4  2  0
 16 11  1  0
M  END
$$$$
