
     RDKit          3D

 17 18  0  0  0  0  0  0  0  0999 V2000
   25.1569   -3.3348  -32.6542 C   0  0  0  0  0  0  0  0  0  0  0  0
   26.3167   -2.7222  -31.9747 C   0  0  0  0  0  0  0  0  0  0  0  0
   26.2484   -2.3564  -30.7758 O   0  0  0  0  0  0  0  0  0  0  0  0
   27.5806   -2.5318  -32.7049 C   0  0  0  0  0  0  0  0  0  0  0  0
   28.7299   -1.9544  -32.2068 C   0  0  0  0  0  0  0  0  0  0  0  0
   29.6804   -1.9677  -33.2059 C   0  0  0  0  0  0  0  0  0  0  0  0
   29.1094   -2.5479  -34.2966 N   0  0  0  0  0  0  0  0  0  0  0  0
   29.8123   -2.8364  -35.8367 S   0  0  0  0  0  6  0  0  0  0  0  0
   28.7728   -3.4450  -36.7336 O   0  0  0  0  0  0  0  0  0  0  0  0
   30.8846   -3.8902  -35.6469 O   0  0  0  0  0  0  0  0  0  0  0  0
   30.4594   -1.3970  -36.5644 C   0  0  0  0  0  0  0  0  0  0  0  0
   31.6841   -0.8708  -36.2065 C   0  0  0  0  0  0  0  0  0  0  0  0
   32.1648    0.2744  -36.8070 C   0  0  0  0  0  0  0  0  0  0  0  0
   31.4583    0.9483  -37.7850 C   0  0  0  0  0  0  0  0  0  0  0  0
   30.2336    0.4230  -38.1435 C   0  0  0  0  0  0  0  0  0  0  0  0
   29.7545   -0.7233  -37.5412 C   0  0  0  0  0  0  0  0  0  0  0  0
   27.8446   -2.8869  -33.9927 C   0  0  0  0  0  0  0  0  0  0  0  0
  1  2  1  0
  2  3  2  0
  2  4  1  0
  4  5  1  0
  5  6  2  0
  6  7  1  0
  7  8  1  0
  8  9  2  0
  8 10  2  0
  8 11  1  0
 11 12  2  0
 12 13  1  0
 13 14  2  0
 14 15  1  0
 15 16  2  0
  7 17  1  0
 17  4  2  0
 16 11  1  0
M  END
$$$$
