
     RDKit          3D

 17 18  0  0  0  0  0  0  0  0999 V2000
   19.8044  -29.0753   14.7836 C   0  0  0  0  0  0  0  0  0  0  0  0
   20.3596  -30.1533   13.9399 C   0  0  0  0  0  0  0  0  0  0  0  0
   19.7334  -30.5840   12.9408 O   0  0  0  0  0  0  0  0  0  0  0  0
   21.6693  -30.7412   14.2654 C   0  0  0  0  0  0  0  0  0  0  0  0
   22.3688  -30.5709   15.4418 C   0  0  0  0  0  0  0  0  0  0  0  0
   23.5440  -31.2860   15.3457 C   0  0  0  0  0  0  0  0  0  0  0  0
   23.5531  -31.8822   14.1223 N   0  0  0  0  0  0  0  0  0  0  0  0
   24.7612  -32.8971   13.4441 S   0  0  0  0  0  6  0  0  0  0  0  0
   26.0059  -32.7861   14.2770 O   0  0  0  0  0  0  0  0  0  0  0  0
   25.1055  -32.3308   12.0814 O   0  0  0  0  0  0  0  0  0  0  0  0
   24.2636  -34.5585   13.3334 C   0  0  0  0  0  0  0  0  0  0  0  0
   23.4335  -35.0193   12.3317 C   0  0  0  0  0  0  0  0  0  0  0  0
   23.0600  -36.3462   12.2768 C   0  0  0  0  0  0  0  0  0  0  0  0
   23.4893  -37.2737   13.2070 C   0  0  0  0  0  0  0  0  0  0  0  0
   24.3193  -36.8140   14.2090 C   0  0  0  0  0  0  0  0  0  0  0  0
   24.6918  -35.4855   14.2619 C   0  0  0  0  0  0  0  0  0  0  0  0
   22.4231  -31.5528   13.4732 C   0  0  0  0  0  0  0  0  0  0  0  0
  1  2  1  0
  2  3  2  0
  2  4  1  0
  4  5  1  0
  5  6  2  0
  6  7  1  0
  7  8  1  0
  8  9  2  0
  8 10  2  0
  8 11  1  0
 11 12  2  0
 12 13  1  0
 13 14  2  0
 14 15  1  0
 15 16  2  0
  7 17  1  0
 17  4  2  0
 16 11  1  0
M  END
$$$$
