
     RDKit          3D

 17 18  0  0  0  0  0  0  0  0999 V2000
   19.5159  -33.9020   11.7538 C   0  0  0  0  0  0  0  0  0  0  0  0
   19.4815  -32.7604   12.6906 C   0  0  0  0  0  0  0  0  0  0  0  0
   18.4523  -32.0523   12.8141 O   0  0  0  0  0  0  0  0  0  0  0  0
   20.6680  -32.4368   13.4995 C   0  0  0  0  0  0  0  0  0  0  0  0
   20.7740  -31.4115   14.4159 C   0  0  0  0  0  0  0  0  0  0  0  0
   22.0431  -31.4512   14.9541 C   0  0  0  0  0  0  0  0  0  0  0  0
   22.6964  -32.4910   14.3675 N   0  0  0  0  0  0  0  0  0  0  0  0
   24.3058  -33.0244   14.6408 S   0  0  0  0  0  6  0  0  0  0  0  0
   24.4524  -33.3883   16.0905 O   0  0  0  0  0  0  0  0  0  0  0  0
   25.2156  -31.8360   14.4032 O   0  0  0  0  0  0  0  0  0  0  0  0
   24.7498  -34.3733   13.6392 C   0  0  0  0  0  0  0  0  0  0  0  0
   24.3996  -35.6725   13.9462 C   0  0  0  0  0  0  0  0  0  0  0  0
   24.7705  -36.7179   13.1260 C   0  0  0  0  0  0  0  0  0  0  0  0
   25.5019  -36.5260   11.9693 C   0  0  0  0  0  0  0  0  0  0  0  0
   25.8526  -35.2273   11.6614 C   0  0  0  0  0  0  0  0  0  0  0  0
   25.4803  -34.1826   12.4838 C   0  0  0  0  0  0  0  0  0  0  0  0
   21.8664  -33.0834   13.4917 C   0  0  0  0  0  0  0  0  0  0  0  0
  1  2  1  0
  2  3  2  0
  2  4  1  0
  4  5  1  0
  5  6  2  0
  6  7  1  0
  7  8  1  0
  8  9  2  0
  8 10  2  0
  8 11  1  0
 11 12  2  0
 12 13  1  0
 13 14  2  0
 14 15  1  0
 15 16  2  0
  7 17  1  0
 17  4  2  0
 16 11  1  0
M  END
$$$$
