
     RDKit          3D

 17 18  0  0  0  0  0  0  0  0999 V2000
   25.1941   -3.3335  -32.7654 C   0  0  0  0  0  0  0  0  0  0  0  0
   26.3103   -2.6525  -32.0782 C   0  0  0  0  0  0  0  0  0  0  0  0
   26.1955   -2.2493  -30.8949 O   0  0  0  0  0  0  0  0  0  0  0  0
   27.5851   -2.4366  -32.7820 C   0  0  0  0  0  0  0  0  0  0  0  0
   28.7008   -1.8069  -32.2712 C   0  0  0  0  0  0  0  0  0  0  0  0
   29.6763   -1.8124  -33.2460 C   0  0  0  0  0  0  0  0  0  0  0  0
   29.1535   -2.4397  -34.3347 N   0  0  0  0  0  0  0  0  0  0  0  0
   29.9048   -2.7426  -35.8490 S   0  0  0  0  0  6  0  0  0  0  0  0
   28.9366   -3.4822  -36.7270 O   0  0  0  0  0  0  0  0  0  0  0  0
   31.0597   -3.6894  -35.5921 O   0  0  0  0  0  0  0  0  0  0  0  0
   30.4389   -1.2907  -36.6406 C   0  0  0  0  0  0  0  0  0  0  0  0
   31.5759   -0.6103  -36.2544 C   0  0  0  0  0  0  0  0  0  0  0  0
   31.9684    0.5397  -36.9075 C   0  0  0  0  0  0  0  0  0  0  0  0
   31.2564    1.0667  -37.9682 C   0  0  0  0  0  0  0  0  0  0  0  0
   30.1193    0.3872  -38.3552 C   0  0  0  0  0  0  0  0  0  0  0  0
   29.7285   -0.7636  -37.7000 C   0  0  0  0  0  0  0  0  0  0  0  0
   27.8938   -2.8150  -34.0531 C   0  0  0  0  0  0  0  0  0  0  0  0
  1  2  1  0
  2  3  2  0
  2  4  1  0
  4  5  1  0
  5  6  2  0
  6  7  1  0
  7  8  1  0
  8  9  2  0
  8 10  2  0
  8 11  1  0
 11 12  2  0
 12 13  1  0
 13 14  2  0
 14 15  1  0
 15 16  2  0
  7 17  1  0
 17  4  2  0
 16 11  1  0
M  END
$$$$
