
     RDKit          3D

 17 18  0  0  0  0  0  0  0  0999 V2000
   19.9017  -34.3155   11.7516 C   0  0  0  0  0  0  0  0  0  0  0  0
   19.6773  -33.1923   12.6844 C   0  0  0  0  0  0  0  0  0  0  0  0
   18.5475  -32.6568   12.7965 O   0  0  0  0  0  0  0  0  0  0  0  0
   20.7897  -32.6824   13.5026 C   0  0  0  0  0  0  0  0  0  0  0  0
   20.7221  -31.6535   14.4186 C   0  0  0  0  0  0  0  0  0  0  0  0
   21.9765  -31.4889   14.9673 C   0  0  0  0  0  0  0  0  0  0  0  0
   22.7932  -32.4103   14.3875 N   0  0  0  0  0  0  0  0  0  0  0  0
   24.4650  -32.6783   14.6747 S   0  0  0  0  0  6  0  0  0  0  0  0
   24.6690  -32.9139   16.1438 O   0  0  0  0  0  0  0  0  0  0  0  0
   25.1867  -31.3877   14.3434 O   0  0  0  0  0  0  0  0  0  0  0  0
   25.1018  -34.0132   13.7622 C   0  0  0  0  0  0  0  0  0  0  0  0
   25.0014  -35.3209   14.1920 C   0  0  0  0  0  0  0  0  0  0  0  0
   25.5195  -36.3547   13.4397 C   0  0  0  0  0  0  0  0  0  0  0  0
   26.1580  -36.1423   12.2326 C   0  0  0  0  0  0  0  0  0  0  0  0
   26.2588  -34.8351   11.8019 C   0  0  0  0  0  0  0  0  0  0  0  0
   25.7395  -33.8021   12.5566 C   0  0  0  0  0  0  0  0  0  0  0  0
   22.0764  -33.1281   13.5055 C   0  0  0  0  0  0  0  0  0  0  0  0
  1  2  1  0
  2  3  2  0
  2  4  1  0
  4  5  1  0
  5  6  2  0
  6  7  1  0
  7  8  1  0
  8  9  2  0
  8 10  2  0
  8 11  1  0
 11 12  2  0
 12 13  1  0
 13 14  2  0
 14 15  1  0
 15 16  2  0
  7 17  1  0
 17  4  2  0
 16 11  1  0
M  END
$$$$
