
     RDKit          3D

 17 18  0  0  0  0  0  0  0  0999 V2000
   25.3914   -3.5174  -33.0905 C   0  0  0  0  0  0  0  0  0  0  0  0
   26.4007   -2.7276  -32.3559 C   0  0  0  0  0  0  0  0  0  0  0  0
   26.1614   -2.2718  -31.2110 O   0  0  0  0  0  0  0  0  0  0  0  0
   27.7142   -2.4634  -32.9658 C   0  0  0  0  0  0  0  0  0  0  0  0
   28.7530   -1.7620  -32.3904 C   0  0  0  0  0  0  0  0  0  0  0  0
   29.8009   -1.7419  -33.2866 C   0  0  0  0  0  0  0  0  0  0  0  0
   29.3976   -2.4249  -34.3925 N   0  0  0  0  0  0  0  0  0  0  0  0
   30.2798   -2.7279  -35.8345 S   0  0  0  0  0  6  0  0  0  0  0  0
   29.5515   -3.7699  -36.6340 O   0  0  0  0  0  0  0  0  0  0  0  0
   31.6014   -3.3470  -35.4266 O   0  0  0  0  0  0  0  0  0  0  0  0
   30.5181   -1.2985  -36.7936 C   0  0  0  0  0  0  0  0  0  0  0  0
   29.7632   -1.0235  -37.9158 C   0  0  0  0  0  0  0  0  0  0  0  0
   29.9819    0.1223  -38.6523 C   0  0  0  0  0  0  0  0  0  0  0  0
   30.9537    1.0444  -38.3132 C   0  0  0  0  0  0  0  0  0  0  0  0
   31.7091    0.7704  -37.1913 C   0  0  0  0  0  0  0  0  0  0  0  0
   31.4884   -0.3770  -36.4557 C   0  0  0  0  0  0  0  0  0  0  0  0
   28.1404   -2.8587  -34.1972 C   0  0  0  0  0  0  0  0  0  0  0  0
  1  2  1  0
  2  3  2  0
  2  4  1  0
  4  5  1  0
  5  6  2  0
  6  7  1  0
  7  8  1  0
  8  9  2  0
  8 10  2  0
  8 11  1  0
 11 12  2  0
 12 13  1  0
 13 14  2  0
 14 15  1  0
 15 16  2  0
  7 17  1  0
 17  4  2  0
 16 11  1  0
M  END
$$$$
