
     RDKit          3D

 17 18  0  0  0  0  0  0  0  0999 V2000
   25.3371   -3.3361  -33.2741 C   0  0  0  0  0  0  0  0  0  0  0  0
   26.4314   -2.7281  -32.4900 C   0  0  0  0  0  0  0  0  0  0  0  0
   26.2621   -2.3880  -31.2936 O   0  0  0  0  0  0  0  0  0  0  0  0
   27.7486   -2.5118  -33.1107 C   0  0  0  0  0  0  0  0  0  0  0  0
   28.8441   -1.9248  -32.5127 C   0  0  0  0  0  0  0  0  0  0  0  0
   29.8742   -1.9133  -33.4295 C   0  0  0  0  0  0  0  0  0  0  0  0
   29.4041   -2.4882  -34.5700 N   0  0  0  0  0  0  0  0  0  0  0  0
   30.2364   -2.7488  -36.0494 S   0  0  0  0  0  6  0  0  0  0  0  0
   29.3396   -3.5174  -36.9770 O   0  0  0  0  0  0  0  0  0  0  0  0
   31.4139   -3.6527  -35.7451 O   0  0  0  0  0  0  0  0  0  0  0  0
   30.7502   -1.2706  -36.8050 C   0  0  0  0  0  0  0  0  0  0  0  0
   31.8123   -0.5263  -36.3333 C   0  0  0  0  0  0  0  0  0  0  0  0
   32.1909    0.6428  -36.9603 C   0  0  0  0  0  0  0  0  0  0  0  0
   31.5381    1.1266  -38.0781 C   0  0  0  0  0  0  0  0  0  0  0  0
   30.4759    0.3832  -38.5506 C   0  0  0  0  0  0  0  0  0  0  0  0
   30.0988   -0.7866  -37.9214 C   0  0  0  0  0  0  0  0  0  0  0  0
   28.1236   -2.8480  -34.3758 C   0  0  0  0  0  0  0  0  0  0  0  0
  1  2  1  0
  2  3  2  0
  2  4  1  0
  4  5  1  0
  5  6  2  0
  6  7  1  0
  7  8  1  0
  8  9  2  0
  8 10  2  0
  8 11  1  0
 11 12  2  0
 12 13  1  0
 13 14  2  0
 14 15  1  0
 15 16  2  0
  7 17  1  0
 17  4  2  0
 16 11  1  0
M  END
$$$$
