
     RDKit          3D

 17 18  0  0  0  0  0  0  0  0999 V2000
   19.0326  -32.4330   11.3586 C   0  0  0  0  0  0  0  0  0  0  0  0
   18.9503  -31.4527   12.4606 C   0  0  0  0  0  0  0  0  0  0  0  0
   17.9061  -30.7848   12.6591 O   0  0  0  0  0  0  0  0  0  0  0  0
   20.1058  -31.2459   13.3488 C   0  0  0  0  0  0  0  0  0  0  0  0
   20.1706  -30.3667   14.4095 C   0  0  0  0  0  0  0  0  0  0  0  0
   21.4214  -30.4788   14.9794 C   0  0  0  0  0  0  0  0  0  0  0  0
   22.1046  -31.4171   14.2688 N   0  0  0  0  0  0  0  0  0  0  0  0
   23.7094  -31.9765   14.5158 S   0  0  0  0  0  6  0  0  0  0  0  0
   23.9486  -32.1153   15.9919 O   0  0  0  0  0  0  0  0  0  0  0  0
   24.6416  -30.8843   14.0314 O   0  0  0  0  0  0  0  0  0  0  0  0
   24.0298  -33.4851   13.7149 C   0  0  0  0  0  0  0  0  0  0  0  0
   24.7859  -33.5680   12.5634 C   0  0  0  0  0  0  0  0  0  0  0  0
   25.0187  -34.7845   11.9558 C   0  0  0  0  0  0  0  0  0  0  0  0
   24.5158  -35.9696   12.4583 C   0  0  0  0  0  0  0  0  0  0  0  0
   23.7596  -35.8879   13.6097 C   0  0  0  0  0  0  0  0  0  0  0  0
   23.5280  -34.6692   14.2160 C   0  0  0  0  0  0  0  0  0  0  0  0
   21.3104  -31.8779   13.2871 C   0  0  0  0  0  0  0  0  0  0  0  0
  1  2  1  0
  2  3  2  0
  2  4  1  0
  4  5  1  0
  5  6  2  0
  6  7  1  0
  7  8  1  0
  8  9  2  0
  8 10  2  0
  8 11  1  0
 11 12  2  0
 12 13  1  0
 13 14  2  0
 14 15  1  0
 15 16  2  0
  7 17  1  0
 17  4  2  0
 16 11  1  0
M  END
$$$$
