
     RDKit          3D

 17 18  0  0  0  0  0  0  0  0999 V2000
   19.4220  -32.5532   10.7765 C   0  0  0  0  0  0  0  0  0  0  0  0
   19.2905  -32.0170   12.1467 C   0  0  0  0  0  0  0  0  0  0  0  0
   18.1910  -31.5868   12.5731 O   0  0  0  0  0  0  0  0  0  0  0  0
   20.4617  -31.9809   13.0377 C   0  0  0  0  0  0  0  0  0  0  0  0
   20.5389  -31.3383   14.2556 C   0  0  0  0  0  0  0  0  0  0  0  0
   21.8021  -31.5473   14.7679 C   0  0  0  0  0  0  0  0  0  0  0  0
   22.4805  -32.3091   13.8669 N   0  0  0  0  0  0  0  0  0  0  0  0
   24.0958  -32.8841   13.9647 S   0  0  0  0  0  6  0  0  0  0  0  0
   24.7512  -32.2746   15.1707 O   0  0  0  0  0  0  0  0  0  0  0  0
   24.8348  -32.3445   12.7568 O   0  0  0  0  0  0  0  0  0  0  0  0
   24.1922  -34.6173   14.0452 C   0  0  0  0  0  0  0  0  0  0  0  0
   23.9965  -35.4234   12.9421 C   0  0  0  0  0  0  0  0  0  0  0  0
   24.0812  -36.7965   13.0453 C   0  0  0  0  0  0  0  0  0  0  0  0
   24.3622  -37.4318   14.2399 C   0  0  0  0  0  0  0  0  0  0  0  0
   24.5581  -36.6267   15.3434 C   0  0  0  0  0  0  0  0  0  0  0  0
   24.4729  -35.2527   15.2378 C   0  0  0  0  0  0  0  0  0  0  0  0
   21.6713  -32.5691   12.8256 C   0  0  0  0  0  0  0  0  0  0  0  0
  1  2  1  0
  2  3  2  0
  2  4  1  0
  4  5  1  0
  5  6  2  0
  6  7  1  0
  7  8  1  0
  8  9  2  0
  8 10  2  0
  8 11  1  0
 11 12  2  0
 12 13  1  0
 13 14  2  0
 14 15  1  0
 15 16  2  0
  7 17  1  0
 17  4  2  0
 16 11  1  0
M  END
$$$$
