
     RDKit          3D

 17 18  0  0  0  0  0  0  0  0999 V2000
   18.9548  -32.3983   11.0777 C   0  0  0  0  0  0  0  0  0  0  0  0
   19.0186  -31.5624   12.2939 C   0  0  0  0  0  0  0  0  0  0  0  0
   18.0315  -30.8829   12.6677 O   0  0  0  0  0  0  0  0  0  0  0  0
   20.2556  -31.5165   13.0907 C   0  0  0  0  0  0  0  0  0  0  0  0
   20.4532  -30.7907   14.2467 C   0  0  0  0  0  0  0  0  0  0  0  0
   21.7424  -31.0211   14.6787 C   0  0  0  0  0  0  0  0  0  0  0  0
   22.3170  -31.8781   13.7912 N   0  0  0  0  0  0  0  0  0  0  0  0
   23.9097  -32.5201   13.8131 S   0  0  0  0  0  6  0  0  0  0  0  0
   24.6338  -31.9695   15.0080 O   0  0  0  0  0  0  0  0  0  0  0  0
   24.6251  -31.9791   12.5917 O   0  0  0  0  0  0  0  0  0  0  0  0
   23.9374  -34.2573   13.8468 C   0  0  0  0  0  0  0  0  0  0  0  0
   24.2353  -34.9727   14.9888 C   0  0  0  0  0  0  0  0  0  0  0  0
   24.2474  -36.3522   14.9766 C   0  0  0  0  0  0  0  0  0  0  0  0
   23.9663  -37.0835   13.8382 C   0  0  0  0  0  0  0  0  0  0  0  0
   23.6683  -36.3692   12.6957 C   0  0  0  0  0  0  0  0  0  0  0  0
   23.6568  -34.9886   12.7104 C   0  0  0  0  0  0  0  0  0  0  0  0
   21.4197  -32.1752   12.8354 C   0  0  0  0  0  0  0  0  0  0  0  0
  1  2  1  0
  2  3  2  0
  2  4  1  0
  4  5  1  0
  5  6  2  0
  6  7  1  0
  7  8  1  0
  8  9  2  0
  8 10  2  0
  8 11  1  0
 11 12  2  0
 12 13  1  0
 13 14  2  0
 14 15  1  0
 15 16  2  0
  7 17  1  0
 17  4  2  0
 16 11  1  0
M  END
$$$$
