
     RDKit          3D

 17 18  0  0  0  0  0  0  0  0999 V2000
   23.6314  -35.1864   13.3673 C   0  0  0  0  0  0  0  0  0  0  0  0
   22.5678  -34.2519   12.9460 C   0  0  0  0  0  0  0  0  0  0  0  0
   21.9504  -34.4150   11.8653 O   0  0  0  0  0  0  0  0  0  0  0  0
   22.2158  -33.1053   13.7994 C   0  0  0  0  0  0  0  0  0  0  0  0
   22.5168  -32.9636   15.1380 C   0  0  0  0  0  0  0  0  0  0  0  0
   22.0117  -31.7525   15.5619 C   0  0  0  0  0  0  0  0  0  0  0  0
   21.4116  -31.1691   14.4887 N   0  0  0  0  0  0  0  0  0  0  0  0
   20.6098  -29.6521   14.4144 S   0  0  0  0  0  6  0  0  0  0  0  0
   21.4920  -28.6769   13.6892 O   0  0  0  0  0  0  0  0  0  0  0  0
   20.4866  -29.1431   15.8364 O   0  0  0  0  0  0  0  0  0  0  0  0
   19.0582  -29.7454   13.6374 C   0  0  0  0  0  0  0  0  0  0  0  0
   18.7864  -30.6475   12.6290 C   0  0  0  0  0  0  0  0  0  0  0  0
   17.5417  -30.6917   12.0358 C   0  0  0  0  0  0  0  0  0  0  0  0
   16.5134  -29.8485   12.4121 C   0  0  0  0  0  0  0  0  0  0  0  0
   16.7842  -28.9461   13.4204 C   0  0  0  0  0  0  0  0  0  0  0  0
   18.0307  -28.9037   14.0126 C   0  0  0  0  0  0  0  0  0  0  0  0
   21.5357  -31.9856   13.4281 C   0  0  0  0  0  0  0  0  0  0  0  0
  1  2  1  0
  2  3  2  0
  2  4  1  0
  4  5  1  0
  5  6  2  0
  6  7  1  0
  7  8  1  0
  8  9  2  0
  8 10  2  0
  8 11  1  0
 11 12  2  0
 12 13  1  0
 13 14  2  0
 14 15  1  0
 15 16  2  0
  7 17  1  0
 17  4  2  0
 16 11  1  0
M  END
$$$$
