
     RDKit          3D

 17 18  0  0  0  0  0  0  0  0999 V2000
   24.9594  -38.4008   16.0326 C   0  0  0  0  0  0  0  0  0  0  0  0
   24.4432  -37.6906   14.8446 C   0  0  0  0  0  0  0  0  0  0  0  0
   23.9492  -38.3182   13.8763 O   0  0  0  0  0  0  0  0  0  0  0  0
   24.5031  -36.2210   14.7828 C   0  0  0  0  0  0  0  0  0  0  0  0
   24.9989  -35.3843   15.7608 C   0  0  0  0  0  0  0  0  0  0  0  0
   24.8731  -34.0858   15.3138 C   0  0  0  0  0  0  0  0  0  0  0  0
   24.3066  -34.1390   14.0775 N   0  0  0  0  0  0  0  0  0  0  0  0
   23.9094  -32.8342   13.0339 S   0  0  0  0  0  6  0  0  0  0  0  0
   23.5147  -33.3912   11.6962 O   0  0  0  0  0  0  0  0  0  0  0  0
   25.1804  -32.0402   12.8094 O   0  0  0  0  0  0  0  0  0  0  0  0
   22.6370  -31.8306   13.6614 C   0  0  0  0  0  0  0  0  0  0  0  0
   21.3482  -31.8722   13.1695 C   0  0  0  0  0  0  0  0  0  0  0  0
   20.3643  -31.0596   13.6937 C   0  0  0  0  0  0  0  0  0  0  0  0
   20.6100  -30.1723   14.7242 C   0  0  0  0  0  0  0  0  0  0  0  0
   21.8984  -30.1298   15.2167 C   0  0  0  0  0  0  0  0  0  0  0  0
   22.8815  -30.9441   14.6906 C   0  0  0  0  0  0  0  0  0  0  0  0
   24.0846  -35.4261   13.7596 C   0  0  0  0  0  0  0  0  0  0  0  0
  1  2  1  0
  2  3  2  0
  2  4  1  0
  4  5  1  0
  5  6  2  0
  6  7  1  0
  7  8  1  0
  8  9  2  0
  8 10  2  0
  8 11  1  0
 11 12  2  0
 12 13  1  0
 13 14  2  0
 14 15  1  0
 15 16  2  0
  7 17  1  0
 17  4  2  0
 16 11  1  0
M  END
$$$$
