7SCW_GSP_holo_aligned_esmfold_protein
     RDKit          3D

 32 34  0  0  0  0  0  0  0  0999 V2000
   34.7005   25.8248   -1.4306 N   0  0  0  0  0  0  0  0  0  0  0  0
   34.1968   24.9973   -2.3689 C   0  0  0  0  0  0  0  0  0  0  0  0
   32.8928   24.8984   -2.4683 N   0  0  0  0  0  0  0  0  0  0  0  0
   32.3720   24.1112   -3.4941 C   0  0  0  0  0  0  0  0  0  0  0  0
   33.1667   23.4389   -4.3873 C   0  0  0  0  0  0  0  0  0  0  0  0
   32.3962   22.6916   -5.2856 N   0  0  0  0  0  0  0  0  0  0  0  0
   31.1713   22.9422   -4.9246 C   0  0  0  0  0  0  0  0  0  0  0  0
   31.0742   23.8002   -3.8299 N   0  0  0  0  0  0  0  0  0  0  0  0
   29.8941   23.8750   -2.9459 C   0  0  2  0  0  0  0  0  0  0  0  0
   28.8951   23.0345   -3.5746 O   0  0  0  0  0  0  0  0  0  0  0  0
   27.9384   23.8866   -4.2107 C   0  0  2  0  0  0  0  0  0  0  0  0
   27.8409   23.6713   -5.7331 C   0  0  0  0  0  0  0  0  0  0  0  0
   26.5078   23.8911   -6.2354 O   0  0  0  0  0  0  0  0  0  0  0  0
   26.2696   23.6356   -7.8062 P   0  0  2  0  0  5  0  0  0  0  0  0
   27.4899   23.0084   -8.3446 O   0  0  0  0  0  0  0  0  0  0  0  0
   25.9102   24.9514   -8.5788 O   0  0  0  0  0  0  0  0  0  0  0  0
   25.0436   22.7005   -8.0976 O   0  0  0  0  0  0  0  0  0  0  0  0
   25.4426   21.2307   -7.7296 P   0  0  2  0  0  5  0  0  0  0  0  0
   25.9799   21.1022   -6.3845 O   0  0  0  0  0  0  0  0  0  0  0  0
   26.7265   20.4846   -8.1868 O   0  0  0  0  0  0  0  0  0  0  0  0
   24.1346   20.5727   -8.3414 O   0  0  0  0  0  0  0  0  0  0  0  0
   24.1845   19.0140   -8.1772 P   0  0  0  0  0  5  0  0  0  0  0  0
   25.2156   18.3520   -9.1530 O   0  0  0  0  0  0  0  0  0  0  0  0
   24.5091   18.5537   -6.7249 O   0  0  0  0  0  0  0  0  0  0  0  0
   22.4624   18.2652   -8.3462 S   0  0  0  0  0  0  0  0  0  0  0  0
   28.2896   25.3363   -3.9304 C   0  0  1  0  0  0  0  0  0  0  0  0
   27.0341   25.9979   -3.7612 O   0  0  0  0  0  0  0  0  0  0  0  0
   29.2446   25.2615   -2.7362 C   0  0  1  0  0  0  0  0  0  0  0  0
   28.5043   25.3171   -1.4920 O   0  0  0  0  0  0  0  0  0  0  0  0
   34.6131   23.5601   -4.1975 C   0  0  0  0  0  0  0  0  0  0  0  0
   35.3985   22.9630   -4.9136 O   0  0  0  0  0  0  0  0  0  0  0  0
   35.0847   24.3381   -3.1804 N   0  0  0  0  0  0  0  0  0  0  0  0
  1  2  1  0
  2  3  2  0
  3  4  1  0
  4  5  2  0
  5  6  1  0
  6  7  2  0
  7  8  1  0
  9  8  1  6
  9 10  1  0
 10 11  1  0
 11 12  1  6
 12 13  1  0
 14 13  1  0
 14 15  2  0
 14 16  1  6
 14 17  1  0
 18 17  1  0
 18 19  2  0
 18 20  1  6
 18 21  1  0
 21 22  1  0
 22 23  1  0
 22 24  1  0
 22 25  2  0
 11 26  1  0
 26 27  1  1
 26 28  1  0
 28 29  1  1
  5 30  1  0
 30 31  2  0
 30 32  1  0
 32  2  1  0
  8  4  1  0
 28  9  1  0
M  END
