
     RDKit          3D

 32 34  0  0  0  0  0  0  0  0999 V2000
   34.9928   25.6613   -1.4296 N   0  0  0  0  0  0  0  0  0  0  0  0
   34.5708   24.8458   -2.5080 C   0  0  0  0  0  0  0  0  0  0  0  0
   33.2487   24.6277   -2.6581 N   0  0  0  0  0  0  0  0  0  0  0  0
   32.8147   23.8663   -3.6605 C   0  0  0  0  0  0  0  0  0  0  0  0
   33.7385   23.3145   -4.5283 C   0  0  0  0  0  0  0  0  0  0  0  0
   33.0423   22.6074   -5.4256 N   0  0  0  0  0  0  0  0  0  0  0  0
   31.7344   22.7137   -5.1293 C   0  0  0  0  0  0  0  0  0  0  0  0
   31.5826   23.4890   -4.0409 N   0  0  0  0  0  0  0  0  0  0  0  0
   30.3094   23.8398   -3.4108 C   0  0  2  0  0  0  0  0  0  0  0  0
   29.4396   22.7803   -3.6400 O   0  0  0  0  0  0  0  0  0  0  0  0
   28.1793   23.3603   -3.6190 C   0  0  2  0  0  0  0  0  0  0  0  0
   27.0939   22.4320   -4.0521 C   0  0  0  0  0  0  0  0  0  0  0  0
   26.5991   22.6694   -5.3106 O   0  0  0  0  0  0  0  0  0  0  0  0
   26.6277   21.1904   -6.1486 P   0  0  2  0  0  5  0  0  0  0  0  0
   27.9458   20.4912   -5.9474 O   0  0  0  0  0  0  0  0  0  0  0  0
   26.3940   21.5216   -7.7937 O   0  0  0  0  0  0  0  0  0  0  0  0
   25.4071   20.1572   -5.6492 O   0  0  0  0  0  0  0  0  0  0  0  0
   25.5319   18.7475   -6.6115 P   0  0  2  0  0  5  0  0  0  0  0  0
   26.7592   17.9958   -6.1638 O   0  0  0  0  0  0  0  0  0  0  0  0
   25.6647   19.2777   -8.2121 O   0  0  0  0  0  0  0  0  0  0  0  0
   24.1341   17.8163   -6.4915 O   0  0  0  0  0  0  0  0  0  0  0  0
   22.8519   18.7430   -7.0879 P   0  0  0  0  0  5  0  0  0  0  0  0
   23.2348   20.4002   -7.0523 O   0  0  0  0  0  0  0  0  0  0  0  0
   22.4872   18.3354   -8.6905 O   0  0  0  0  0  0  0  0  0  0  0  0
   21.4165   18.5249   -6.1628 S   0  0  0  0  0  0  0  0  0  0  0  0
   28.3525   24.5554   -4.4972 C   0  0  1  0  0  0  0  0  0  0  0  0
   27.3622   25.4904   -4.1660 O   0  0  0  0  0  0  0  0  0  0  0  0
   29.7116   25.0548   -4.0508 C   0  0  1  0  0  0  0  0  0  0  0  0
   29.5181   26.0133   -3.0498 O   0  0  0  0  0  0  0  0  0  0  0  0
   35.0873   23.5458   -4.3629 C   0  0  0  0  0  0  0  0  0  0  0  0
   35.9623   23.0660   -5.1258 O   0  0  0  0  0  0  0  0  0  0  0  0
   35.4936   24.3153   -3.3462 N   0  0  0  0  0  0  0  0  0  0  0  0
  1  2  1  0
  2  3  2  0
  3  4  1  0
  4  5  2  0
  5  6  1  0
  6  7  2  0
  7  8  1  0
  9  8  1  6
  9 10  1  0
 10 11  1  0
 11 12  1  6
 12 13  1  0
 13 14  1  0
 14 15  2  0
 14 16  1  6
 14 17  1  0
 17 18  1  0
 18 19  2  0
 18 20  1  6
 18 21  1  0
 21 22  1  0
 22 23  1  0
 22 24  1  0
 22 25  2  0
 11 26  1  0
 26 27  1  1
 26 28  1  0
 28 29  1  1
  5 30  1  0
 30 31  2  0
 30 32  1  0
 32  2  1  0
  8  4  1  0
 28  9  1  0
M  END
$$$$
