
     RDKit          3D

 32 34  0  0  0  0  0  0  0  0999 V2000
   35.0576   25.7388   -1.5331 N   0  0  0  0  0  0  0  0  0  0  0  0
   34.5845   24.9237   -2.5905 C   0  0  0  0  0  0  0  0  0  0  0  0
   33.2540   24.7320   -2.6964 N   0  0  0  0  0  0  0  0  0  0  0  0
   32.7725   23.9718   -3.6778 C   0  0  0  0  0  0  0  0  0  0  0  0
   33.6564   23.3942   -4.5700 C   0  0  0  0  0  0  0  0  0  0  0  0
   32.9174   22.6946   -5.4385 N   0  0  0  0  0  0  0  0  0  0  0  0
   31.6221   22.8304   -5.1014 C   0  0  0  0  0  0  0  0  0  0  0  0
   31.5214   23.6171   -4.0154 N   0  0  0  0  0  0  0  0  0  0  0  0
   30.2765   23.9992   -3.3479 C   0  0  2  0  0  0  0  0  0  0  0  0
   29.3642   22.9762   -3.5777 O   0  0  0  0  0  0  0  0  0  0  0  0
   28.1263   23.5997   -3.5146 C   0  0  2  0  0  0  0  0  0  0  0  0
   26.9987   22.7197   -3.9404 C   0  0  0  0  0  0  0  0  0  0  0  0
   26.5622   22.9220   -5.2263 O   0  0  0  0  0  0  0  0  0  0  0  0
   26.8536   21.4852   -6.0874 P   0  0  2  0  0  5  0  0  0  0  0  0
   28.2351   20.9624   -5.7962 O   0  0  0  0  0  0  0  0  0  0  0  0
   26.7023   21.8306   -7.7392 O   0  0  0  0  0  0  0  0  0  0  0  0
   25.7497   20.2844   -5.7054 O   0  0  0  0  0  0  0  0  0  0  0  0
   25.5338   19.3469   -7.1208 P   0  0  2  0  0  5  0  0  0  0  0  0
   26.8880   19.1586   -7.7551 O   0  0  0  0  0  0  0  0  0  0  0  0
   24.4869   20.2270   -8.1159 O   0  0  0  0  0  0  0  0  0  0  0  0
   24.7893   17.8806   -6.7586 O   0  0  0  0  0  0  0  0  0  0  0  0
   23.1260   18.0848   -6.9824 P   0  0  0  0  0  5  0  0  0  0  0  0
   22.3363   18.2993   -5.4908 O   0  0  0  0  0  0  0  0  0  0  0  0
   22.7926   19.4419   -7.9388 O   0  0  0  0  0  0  0  0  0  0  0  0
   22.4094   16.7233   -7.7547 S   0  0  0  0  0  0  0  0  0  0  0  0
   28.3218   24.8063   -4.3722 C   0  0  1  0  0  0  0  0  0  0  0  0
   27.3735   25.7685   -3.9983 O   0  0  0  0  0  0  0  0  0  0  0  0
   29.7078   25.2479   -3.9484 C   0  0  1  0  0  0  0  0  0  0  0  0
   29.5721   26.1911   -2.9237 O   0  0  0  0  0  0  0  0  0  0  0  0
   35.0143   23.5988   -4.4498 C   0  0  0  0  0  0  0  0  0  0  0  0
   35.8544   23.0949   -5.2362 O   0  0  0  0  0  0  0  0  0  0  0  0
   35.4687   24.3677   -3.4533 N   0  0  0  0  0  0  0  0  0  0  0  0
  1  2  1  0
  2  3  2  0
  3  4  1  0
  4  5  2  0
  5  6  1  0
  6  7  2  0
  7  8  1  0
  9  8  1  6
  9 10  1  0
 10 11  1  0
 11 12  1  6
 12 13  1  0
 13 14  1  0
 14 15  2  0
 14 16  1  6
 14 17  1  0
 17 18  1  0
 18 19  2  0
 18 20  1  6
 18 21  1  0
 21 22  1  0
 22 23  1  0
 22 24  1  0
 22 25  2  0
 11 26  1  0
 26 27  1  1
 26 28  1  0
 28 29  1  1
  5 30  1  0
 30 31  2  0
 30 32  1  0
 32  2  1  0
  8  4  1  0
 28  9  1  0
M  END
$$$$
