
     RDKit          3D

 32 34  0  0  0  0  0  0  0  0999 V2000
   34.8760   25.7919   -1.7878 N   0  0  0  0  0  0  0  0  0  0  0  0
   34.3949   24.8694   -2.7489 C   0  0  0  0  0  0  0  0  0  0  0  0
   33.0613   24.7004   -2.8531 N   0  0  0  0  0  0  0  0  0  0  0  0
   32.5723   23.8416   -3.7455 C   0  0  0  0  0  0  0  0  0  0  0  0
   33.4518   23.1399   -4.5485 C   0  0  0  0  0  0  0  0  0  0  0  0
   32.7056   22.3612   -5.3401 N   0  0  0  0  0  0  0  0  0  0  0  0
   31.4101   22.5690   -5.0426 C   0  0  0  0  0  0  0  0  0  0  0  0
   31.3165   23.4814   -4.0591 N   0  0  0  0  0  0  0  0  0  0  0  0
   30.0738   23.9716   -3.4619 C   0  0  2  0  0  0  0  0  0  0  0  0
   29.1232   22.9715   -3.6290 O   0  0  0  0  0  0  0  0  0  0  0  0
   27.9128   23.6495   -3.6542 C   0  0  2  0  0  0  0  0  0  0  0  0
   26.7581   22.7839   -4.0347 C   0  0  0  0  0  0  0  0  0  0  0  0
   27.0617   21.4547   -4.1967 O   0  0  0  0  0  0  0  0  0  0  0  0
   27.1304   21.1555   -5.8689 P   0  0  2  0  0  5  0  0  0  0  0  0
   28.1026   22.0912   -6.5365 O   0  0  0  0  0  0  0  0  0  0  0  0
   25.5761   21.3884   -6.5020 O   0  0  0  0  0  0  0  0  0  0  0  0
   27.5994   19.5840   -6.2111 O   0  0  0  0  0  0  0  0  0  0  0  0
   26.2270   18.7908   -6.8562 P   0  0  2  0  0  5  0  0  0  0  0  0
   26.5989   17.3484   -7.0861 O   0  0  0  0  0  0  0  0  0  0  0  0
   25.8574   19.5861   -8.3025 O   0  0  0  0  0  0  0  0  0  0  0  0
   24.9044   18.9525   -5.8267 O   0  0  0  0  0  0  0  0  0  0  0  0
   23.5082   18.7125   -6.7494 P   0  0  0  0  0  5  0  0  0  0  0  0
   23.2895   19.9841   -7.8583 O   0  0  0  0  0  0  0  0  0  0  0  0
   23.5910   17.2703   -7.6329 O   0  0  0  0  0  0  0  0  0  0  0  0
   22.0954   18.6341   -5.7689 S   0  0  0  0  0  0  0  0  0  0  0  0
   28.1821   24.7681   -4.6059 C   0  0  1  0  0  0  0  0  0  0  0  0
   27.2684   25.7978   -4.3424 O   0  0  0  0  0  0  0  0  0  0  0  0
   29.5756   25.1863   -4.1827 C   0  0  1  0  0  0  0  0  0  0  0  0
   29.4567   26.2195   -3.2465 O   0  0  0  0  0  0  0  0  0  0  0  0
   34.8131   23.3227   -4.4311 C   0  0  0  0  0  0  0  0  0  0  0  0
   35.6494   22.7078   -5.1386 O   0  0  0  0  0  0  0  0  0  0  0  0
   35.2751   24.1926   -3.5253 N   0  0  0  0  0  0  0  0  0  0  0  0
  1  2  1  0
  2  3  2  0
  3  4  1  0
  4  5  2  0
  5  6  1  0
  6  7  2  0
  7  8  1  0
  9  8  1  6
  9 10  1  0
 10 11  1  0
 11 12  1  6
 12 13  1  0
 13 14  1  0
 14 15  2  0
 14 16  1  6
 14 17  1  0
 17 18  1  0
 18 19  2  0
 18 20  1  6
 18 21  1  0
 21 22  1  0
 22 23  1  0
 22 24  1  0
 22 25  2  0
 11 26  1  0
 26 27  1  1
 26 28  1  0
 28 29  1  1
  5 30  1  0
 30 31  2  0
 30 32  1  0
 32  2  1  0
  8  4  1  0
 28  9  1  0
M  END
$$$$
