
     RDKit          3D

 32 34  0  0  0  0  0  0  0  0999 V2000
   34.9078   25.7204   -1.4114 N   0  0  0  0  0  0  0  0  0  0  0  0
   34.4731   24.8847   -2.4691 C   0  0  0  0  0  0  0  0  0  0  0  0
   33.1477   24.6838   -2.6143 N   0  0  0  0  0  0  0  0  0  0  0  0
   32.7019   23.9042   -3.5974 C   0  0  0  0  0  0  0  0  0  0  0  0
   33.6169   23.3163   -4.4506 C   0  0  0  0  0  0  0  0  0  0  0  0
   32.9098   22.5978   -5.3301 N   0  0  0  0  0  0  0  0  0  0  0  0
   31.6037   22.7321   -5.0371 C   0  0  0  0  0  0  0  0  0  0  0  0
   31.4641   23.5368   -3.9687 N   0  0  0  0  0  0  0  0  0  0  0  0
   30.1965   23.9233   -3.3483 C   0  0  2  0  0  0  0  0  0  0  0  0
   29.3054   22.8789   -3.5649 O   0  0  0  0  0  0  0  0  0  0  0  0
   28.0574   23.4853   -3.5567 C   0  0  2  0  0  0  0  0  0  0  0  0
   26.9543   22.5735   -3.9798 C   0  0  0  0  0  0  0  0  0  0  0  0
   26.4526   22.8176   -5.2343 O   0  0  0  0  0  0  0  0  0  0  0  0
   26.5814   21.3703   -6.1171 P   0  0  2  0  0  5  0  0  0  0  0  0
   28.0257   20.9877   -6.3020 O   0  0  0  0  0  0  0  0  0  0  0  0
   25.8505   21.6161   -7.6258 O   0  0  0  0  0  0  0  0  0  0  0  0
   25.7966   20.0974   -5.3619 O   0  0  0  0  0  0  0  0  0  0  0  0
   25.7178   18.8230   -6.5015 P   0  0  2  0  0  5  0  0  0  0  0  0
   27.0398   18.0997   -6.4702 O   0  0  0  0  0  0  0  0  0  0  0  0
   25.4296   19.5477   -8.0023 O   0  0  0  0  0  0  0  0  0  0  0  0
   24.4228   17.8004   -6.1659 O   0  0  0  0  0  0  0  0  0  0  0  0
   23.0031   18.6319   -6.5548 P   0  0  0  0  0  5  0  0  0  0  0  0
   23.0862   20.2489   -6.0329 O   0  0  0  0  0  0  0  0  0  0  0  0
   22.7328   18.6460   -8.2264 O   0  0  0  0  0  0  0  0  0  0  0  0
   21.6195   17.9217   -5.8166 S   0  0  0  0  0  0  0  0  0  0  0  0
   28.2584   24.6634   -4.4518 C   0  0  1  0  0  0  0  0  0  0  0  0
   27.2868   25.6237   -4.1379 O   0  0  0  0  0  0  0  0  0  0  0  0
   29.6262   25.1410   -4.0082 C   0  0  1  0  0  0  0  0  0  0  0  0
   29.4496   26.1180   -3.0221 O   0  0  0  0  0  0  0  0  0  0  0  0
   34.9692   23.5305   -4.2904 C   0  0  0  0  0  0  0  0  0  0  0  0
   35.8367   23.0179   -5.0406 O   0  0  0  0  0  0  0  0  0  0  0  0
   35.3875   24.3189   -3.2933 N   0  0  0  0  0  0  0  0  0  0  0  0
  1  2  1  0
  2  3  2  0
  3  4  1  0
  4  5  2  0
  5  6  1  0
  6  7  2  0
  7  8  1  0
  9  8  1  6
  9 10  1  0
 10 11  1  0
 11 12  1  6
 12 13  1  0
 13 14  1  0
 14 15  2  0
 14 16  1  6
 14 17  1  0
 17 18  1  0
 18 19  2  0
 18 20  1  6
 18 21  1  0
 21 22  1  0
 22 23  1  0
 22 24  1  0
 22 25  2  0
 11 26  1  0
 26 27  1  1
 26 28  1  0
 28 29  1  1
  5 30  1  0
 30 31  2  0
 30 32  1  0
 32  2  1  0
  8  4  1  0
 28  9  1  0
M  END
$$$$
