
     RDKit          3D

 32 34  0  0  0  0  0  0  0  0999 V2000
   35.0648   25.3271   -1.8108 N   0  0  0  0  0  0  0  0  0  0  0  0
   34.5480   24.5561   -2.8807 C   0  0  0  0  0  0  0  0  0  0  0  0
   33.2125   24.3844   -2.9509 N   0  0  0  0  0  0  0  0  0  0  0  0
   32.6904   23.6656   -3.9428 C   0  0  0  0  0  0  0  0  0  0  0  0
   33.5381   23.1095   -4.8824 C   0  0  0  0  0  0  0  0  0  0  0  0
   32.7631   22.4504   -5.7512 N   0  0  0  0  0  0  0  0  0  0  0  0
   31.4809   22.5897   -5.3684 C   0  0  0  0  0  0  0  0  0  0  0  0
   31.4247   23.3384   -4.2527 N   0  0  0  0  0  0  0  0  0  0  0  0
   30.2066   23.7115   -3.5328 C   0  0  2  0  0  0  0  0  0  0  0  0
   29.3162   22.6531   -3.6696 O   0  0  0  0  0  0  0  0  0  0  0  0
   28.0643   23.2419   -3.5629 C   0  0  2  0  0  0  0  0  0  0  0  0
   26.9437   22.3117   -3.8889 C   0  0  0  0  0  0  0  0  0  0  0  0
   27.3241   21.1390   -4.4930 O   0  0  0  0  0  0  0  0  0  0  0  0
   26.9240   21.2698   -6.1403 P   0  0  2  0  0  5  0  0  0  0  0  0
   27.9212   20.5277   -6.9896 O   0  0  0  0  0  0  0  0  0  0  0  0
   26.9291   22.9147   -6.5464 O   0  0  0  0  0  0  0  0  0  0  0  0
   25.3995   20.6589   -6.4709 O   0  0  0  0  0  0  0  0  0  0  0  0
   25.5448   18.9537   -6.4810 P   0  0  2  0  0  5  0  0  0  0  0  0
   26.9069   18.6079   -5.9360 O   0  0  0  0  0  0  0  0  0  0  0  0
   25.3690   18.4736   -8.0932 O   0  0  0  0  0  0  0  0  0  0  0  0
   24.3030   18.2428   -5.5933 O   0  0  0  0  0  0  0  0  0  0  0  0
   22.8389   18.8005   -6.2286 P   0  0  0  0  0  5  0  0  0  0  0  0
   22.7227   20.4919   -6.0870 O   0  0  0  0  0  0  0  0  0  0  0  0
   22.6888   18.4120   -7.8699 O   0  0  0  0  0  0  0  0  0  0  0  0
   21.4838   18.1201   -5.4135 S   0  0  0  0  0  0  0  0  0  0  0  0
   28.1742   24.4163   -4.4785 C   0  0  1  0  0  0  0  0  0  0  0  0
   27.2175   25.3650   -4.0918 O   0  0  0  0  0  0  0  0  0  0  0  0
   29.5665   24.9162   -4.1511 C   0  0  1  0  0  0  0  0  0  0  0  0
   29.4569   25.8977   -3.1596 O   0  0  0  0  0  0  0  0  0  0  0  0
   34.9018   23.2932   -4.7983 C   0  0  0  0  0  0  0  0  0  0  0  0
   35.7100   22.8076   -5.6283 O   0  0  0  0  0  0  0  0  0  0  0  0
   35.3973   24.0205   -3.7903 N   0  0  0  0  0  0  0  0  0  0  0  0
  1  2  1  0
  2  3  2  0
  3  4  1  0
  4  5  2  0
  5  6  1  0
  6  7  2  0
  7  8  1  0
  9  8  1  6
  9 10  1  0
 10 11  1  0
 11 12  1  6
 12 13  1  0
 13 14  1  0
 14 15  2  0
 14 16  1  6
 14 17  1  0
 17 18  1  0
 18 19  2  0
 18 20  1  6
 18 21  1  0
 21 22  1  0
 22 23  1  0
 22 24  1  0
 22 25  2  0
 11 26  1  0
 26 27  1  1
 26 28  1  0
 28 29  1  1
  5 30  1  0
 30 31  2  0
 30 32  1  0
 32  2  1  0
  8  4  1  0
 28  9  1  0
M  END
$$$$
