
     RDKit          3D

 32 34  0  0  0  0  0  0  0  0999 V2000
   34.8673   25.6047   -1.4485 N   0  0  0  0  0  0  0  0  0  0  0  0
   34.4214   24.7637   -2.4973 C   0  0  0  0  0  0  0  0  0  0  0  0
   33.0923   24.6177   -2.6712 N   0  0  0  0  0  0  0  0  0  0  0  0
   32.6361   23.8350   -3.6470 C   0  0  0  0  0  0  0  0  0  0  0  0
   33.5443   23.1871   -4.4631 C   0  0  0  0  0  0  0  0  0  0  0  0
   32.8273   22.4794   -5.3435 N   0  0  0  0  0  0  0  0  0  0  0  0
   31.5218   22.6780   -5.0866 C   0  0  0  0  0  0  0  0  0  0  0  0
   31.3924   23.5136   -4.0408 N   0  0  0  0  0  0  0  0  0  0  0  0
   30.1287   23.9703   -3.4615 C   0  0  2  0  0  0  0  0  0  0  0  0
   29.2277   22.9183   -3.5767 O   0  0  0  0  0  0  0  0  0  0  0  0
   27.9855   23.5344   -3.6281 C   0  0  2  0  0  0  0  0  0  0  0  0
   26.8737   22.5964   -3.9618 C   0  0  0  0  0  0  0  0  0  0  0  0
   27.2483   21.4911   -4.6850 O   0  0  0  0  0  0  0  0  0  0  0  0
   26.5489   21.6394   -6.2275 P   0  0  2  0  0  5  0  0  0  0  0  0
   27.5515   21.3051   -7.2997 O   0  0  0  0  0  0  0  0  0  0  0  0
   26.0225   23.2398   -6.4068 O   0  0  0  0  0  0  0  0  0  0  0  0
   25.2235   20.6330   -6.4200 O   0  0  0  0  0  0  0  0  0  0  0  0
   25.8303   19.1089   -6.9077 P   0  0  2  0  0  5  0  0  0  0  0  0
   27.2826   19.0466   -6.5095 O   0  0  0  0  0  0  0  0  0  0  0  0
   25.6317   19.0357   -8.5858 O   0  0  0  0  0  0  0  0  0  0  0  0
   24.9278   17.8608   -6.2271 O   0  0  0  0  0  0  0  0  0  0  0  0
   23.3067   18.1283   -6.6256 P   0  0  0  0  0  5  0  0  0  0  0  0
   23.1049   19.6556   -7.3474 O   0  0  0  0  0  0  0  0  0  0  0  0
   22.7384   16.9659   -7.7180 O   0  0  0  0  0  0  0  0  0  0  0  0
   22.2867   18.0734   -5.2399 S   0  0  0  0  0  0  0  0  0  0  0  0
   28.1974   24.6184   -4.6328 C   0  0  1  0  0  0  0  0  0  0  0  0
   27.2350   25.6137   -4.4139 O   0  0  0  0  0  0  0  0  0  0  0  0
   29.5698   25.1237   -4.2364 C   0  0  1  0  0  0  0  0  0  0  0  0
   29.4027   26.1931   -3.3495 O   0  0  0  0  0  0  0  0  0  0  0  0
   34.9006   23.3455   -4.2739 C   0  0  0  0  0  0  0  0  0  0  0  0
   35.7621   22.7773   -4.9901 O   0  0  0  0  0  0  0  0  0  0  0  0
   35.3293   24.1385   -3.2850 N   0  0  0  0  0  0  0  0  0  0  0  0
  1  2  1  0
  2  3  2  0
  3  4  1  0
  4  5  2  0
  5  6  1  0
  6  7  2  0
  7  8  1  0
  9  8  1  6
  9 10  1  0
 10 11  1  0
 11 12  1  6
 12 13  1  0
 13 14  1  0
 14 15  2  0
 14 16  1  6
 14 17  1  0
 17 18  1  0
 18 19  2  0
 18 20  1  6
 18 21  1  0
 21 22  1  0
 22 23  1  0
 22 24  1  0
 22 25  2  0
 11 26  1  0
 26 27  1  1
 26 28  1  0
 28 29  1  1
  5 30  1  0
 30 31  2  0
 30 32  1  0
 32  2  1  0
  8  4  1  0
 28  9  1  0
M  END
$$$$
