
     RDKit          3D

 32 34  0  0  0  0  0  0  0  0999 V2000
   34.8135   25.1632   -1.3316 N   0  0  0  0  0  0  0  0  0  0  0  0
   34.3296   24.4389   -2.4484 C   0  0  0  0  0  0  0  0  0  0  0  0
   32.9946   24.3351   -2.6064 N   0  0  0  0  0  0  0  0  0  0  0  0
   32.5029   23.6617   -3.6446 C   0  0  0  0  0  0  0  0  0  0  0  0
   33.3812   23.0818   -4.5408 C   0  0  0  0  0  0  0  0  0  0  0  0
   32.6323   22.4782   -5.4708 N   0  0  0  0  0  0  0  0  0  0  0  0
   31.3365   22.6740   -5.1667 C   0  0  0  0  0  0  0  0  0  0  0  0
   31.2453   23.4036   -4.0407 N   0  0  0  0  0  0  0  0  0  0  0  0
   30.0030   23.8233   -3.3911 C   0  0  2  0  0  0  0  0  0  0  0  0
   29.0774   22.8066   -3.5941 O   0  0  0  0  0  0  0  0  0  0  0  0
   27.8481   23.4491   -3.5560 C   0  0  2  0  0  0  0  0  0  0  0  0
   26.7100   22.5724   -3.9602 C   0  0  0  0  0  0  0  0  0  0  0  0
   26.2135   22.8137   -5.2173 O   0  0  0  0  0  0  0  0  0  0  0  0
   26.5471   21.4396   -6.1613 P   0  0  2  0  0  5  0  0  0  0  0  0
   28.0177   21.3526   -6.4718 O   0  0  0  0  0  0  0  0  0  0  0  0
   25.6593   21.5695   -7.5985 O   0  0  0  0  0  0  0  0  0  0  0  0
   26.0902   20.0209   -5.3961 O   0  0  0  0  0  0  0  0  0  0  0  0
   25.8717   18.8487   -6.6237 P   0  0  2  0  0  5  0  0  0  0  0  0
   27.1713   18.1011   -6.7782 O   0  0  0  0  0  0  0  0  0  0  0  0
   25.4636   19.7024   -8.0256 O   0  0  0  0  0  0  0  0  0  0  0  0
   24.5873   17.8256   -6.2512 O   0  0  0  0  0  0  0  0  0  0  0  0
   23.1601   18.6202   -6.6870 P   0  0  0  0  0  5  0  0  0  0  0  0
   22.9873   20.0734   -5.8195 O   0  0  0  0  0  0  0  0  0  0  0  0
   23.1440   19.0028   -8.3365 O   0  0  0  0  0  0  0  0  0  0  0  0
   21.7670   17.6602   -6.3686 S   0  0  0  0  0  0  0  0  0  0  0  0
   28.0644   24.6261   -4.4490 C   0  0  1  0  0  0  0  0  0  0  0  0
   27.1283   25.6124   -4.1092 O   0  0  0  0  0  0  0  0  0  0  0  0
   29.4547   25.0609   -4.0322 C   0  0  1  0  0  0  0  0  0  0  0  0
   29.3279   26.0368   -3.0373 O   0  0  0  0  0  0  0  0  0  0  0  0
   34.7439   23.1959   -4.3669 C   0  0  0  0  0  0  0  0  0  0  0  0
   35.5791   22.6862   -5.1547 O   0  0  0  0  0  0  0  0  0  0  0  0
   35.2085   23.8788   -3.3141 N   0  0  0  0  0  0  0  0  0  0  0  0
  1  2  1  0
  2  3  2  0
  3  4  1  0
  4  5  2  0
  5  6  1  0
  6  7  2  0
  7  8  1  0
  9  8  1  6
  9 10  1  0
 10 11  1  0
 11 12  1  6
 12 13  1  0
 13 14  1  0
 14 15  2  0
 14 16  1  6
 14 17  1  0
 17 18  1  0
 18 19  2  0
 18 20  1  6
 18 21  1  0
 21 22  1  0
 22 23  1  0
 22 24  1  0
 22 25  2  0
 11 26  1  0
 26 27  1  1
 26 28  1  0
 28 29  1  1
  5 30  1  0
 30 31  2  0
 30 32  1  0
 32  2  1  0
  8  4  1  0
 28  9  1  0
M  END
$$$$
