
     RDKit          3D

 32 34  0  0  0  0  0  0  0  0999 V2000
   34.9454   25.2821   -1.2102 N   0  0  0  0  0  0  0  0  0  0  0  0
   34.5206   24.5702   -2.3586 C   0  0  0  0  0  0  0  0  0  0  0  0
   33.1986   24.5184   -2.6191 N   0  0  0  0  0  0  0  0  0  0  0  0
   32.7621   23.8582   -3.6900 C   0  0  0  0  0  0  0  0  0  0  0  0
   33.6830   23.2380   -4.5134 C   0  0  0  0  0  0  0  0  0  0  0  0
   32.9847   22.6586   -5.4965 N   0  0  0  0  0  0  0  0  0  0  0  0
   31.6782   22.9075   -5.2943 C   0  0  0  0  0  0  0  0  0  0  0  0
   31.5295   23.6476   -4.1814 N   0  0  0  0  0  0  0  0  0  0  0  0
   30.2586   24.1205   -3.6315 C   0  0  2  0  0  0  0  0  0  0  0  0
   29.3156   23.1314   -3.8849 O   0  0  0  0  0  0  0  0  0  0  0  0
   28.1097   23.8149   -3.9474 C   0  0  2  0  0  0  0  0  0  0  0  0
   26.9744   22.9690   -4.4194 C   0  0  0  0  0  0  0  0  0  0  0  0
   27.2928   21.6543   -4.6543 O   0  0  0  0  0  0  0  0  0  0  0  0
   26.4267   21.1666   -6.0337 P   0  0  2  0  0  5  0  0  0  0  0  0
   27.3561   20.9663   -7.2011 O   0  0  0  0  0  0  0  0  0  0  0  0
   25.2990   22.3788   -6.3937 O   0  0  0  0  0  0  0  0  0  0  0  0
   25.5893   19.7376   -5.7818 O   0  0  0  0  0  0  0  0  0  0  0  0
   25.7033   18.8386   -7.2336 P   0  0  2  0  0  5  0  0  0  0  0  0
   27.1645   18.5798   -7.4973 O   0  0  0  0  0  0  0  0  0  0  0  0
   25.0038   19.7967   -8.4393 O   0  0  0  0  0  0  0  0  0  0  0  0
   24.8121   17.4140   -7.1258 O   0  0  0  0  0  0  0  0  0  0  0  0
   23.2875   17.8119   -6.5130 P   0  0  0  0  0  5  0  0  0  0  0  0
   23.3995   18.3159   -4.8919 O   0  0  0  0  0  0  0  0  0  0  0  0
   22.5764   19.0716   -7.3934 O   0  0  0  0  0  0  0  0  0  0  0  0
   22.2051   16.4743   -6.5641 S   0  0  0  0  0  0  0  0  0  0  0  0
   28.4307   24.9670   -4.8414 C   0  0  1  0  0  0  0  0  0  0  0  0
   27.5069   25.9901   -4.5873 O   0  0  0  0  0  0  0  0  0  0  0  0
   29.8013   25.3633   -4.3312 C   0  0  1  0  0  0  0  0  0  0  0  0
   29.6363   26.3615   -3.3645 O   0  0  0  0  0  0  0  0  0  0  0  0
   35.0317   23.2992   -4.2349 C   0  0  0  0  0  0  0  0  0  0  0  0
   35.9042   22.7516   -4.9538 O   0  0  0  0  0  0  0  0  0  0  0  0
   35.4406   23.9700   -3.1516 N   0  0  0  0  0  0  0  0  0  0  0  0
  1  2  1  0
  2  3  2  0
  3  4  1  0
  4  5  2  0
  5  6  1  0
  6  7  2  0
  7  8  1  0
  9  8  1  6
  9 10  1  0
 10 11  1  0
 11 12  1  6
 12 13  1  0
 13 14  1  0
 14 15  2  0
 14 16  1  6
 14 17  1  0
 17 18  1  0
 18 19  2  0
 18 20  1  6
 18 21  1  0
 21 22  1  0
 22 23  1  0
 22 24  1  0
 22 25  2  0
 11 26  1  0
 26 27  1  1
 26 28  1  0
 28 29  1  1
  5 30  1  0
 30 31  2  0
 30 32  1  0
 32  2  1  0
  8  4  1  0
 28  9  1  0
M  END
$$$$
