
     RDKit          3D

 32 34  0  0  0  0  0  0  0  0999 V2000
   34.7022   25.6193   -1.2036 N   0  0  0  0  0  0  0  0  0  0  0  0
   34.2678   24.8095   -2.2814 C   0  0  0  0  0  0  0  0  0  0  0  0
   32.9412   24.6946   -2.4933 N   0  0  0  0  0  0  0  0  0  0  0  0
   32.4957   23.9418   -3.4972 C   0  0  0  0  0  0  0  0  0  0  0  0
   33.4123   23.2923   -4.3027 C   0  0  0  0  0  0  0  0  0  0  0  0
   32.7051   22.6179   -5.2164 N   0  0  0  0  0  0  0  0  0  0  0  0
   31.3974   22.8381   -4.9900 C   0  0  0  0  0  0  0  0  0  0  0  0
   31.2568   23.6544   -3.9305 N   0  0  0  0  0  0  0  0  0  0  0  0
   29.9874   24.1250   -3.3752 C   0  0  2  0  0  0  0  0  0  0  0  0
   29.0550   23.1162   -3.5867 O   0  0  0  0  0  0  0  0  0  0  0  0
   27.8388   23.7810   -3.6504 C   0  0  2  0  0  0  0  0  0  0  0  0
   26.7089   22.9065   -4.0815 C   0  0  0  0  0  0  0  0  0  0  0  0
   27.0575   21.6080   -4.3596 O   0  0  0  0  0  0  0  0  0  0  0  0
   27.0348   21.4331   -6.0506 P   0  0  2  0  0  5  0  0  0  0  0  0
   27.9696   22.4191   -6.6992 O   0  0  0  0  0  0  0  0  0  0  0  0
   25.4484   21.7064   -6.5793 O   0  0  0  0  0  0  0  0  0  0  0  0
   27.4839   19.8928   -6.5329 O   0  0  0  0  0  0  0  0  0  0  0  0
   26.0585   19.1088   -7.0641 P   0  0  2  0  0  5  0  0  0  0  0  0
   26.4170   17.6822   -7.3927 O   0  0  0  0  0  0  0  0  0  0  0  0
   25.5320   19.9583   -8.4286 O   0  0  0  0  0  0  0  0  0  0  0  0
   24.8499   19.2103   -5.8959 O   0  0  0  0  0  0  0  0  0  0  0  0
   23.3950   18.7556   -6.6273 P   0  0  0  0  0  5  0  0  0  0  0  0
   22.8948   19.9242   -7.7580 O   0  0  0  0  0  0  0  0  0  0  0  0
   23.5490   17.2819   -7.4471 O   0  0  0  0  0  0  0  0  0  0  0  0
   22.1269   18.5739   -5.4774 S   0  0  0  0  0  0  0  0  0  0  0  0
   28.1304   24.9117   -4.5811 C   0  0  1  0  0  0  0  0  0  0  0  0
   27.1959   25.9287   -4.3420 O   0  0  0  0  0  0  0  0  0  0  0  0
   29.5024   25.3411   -4.1026 C   0  0  1  0  0  0  0  0  0  0  0  0
   29.3372   26.3638   -3.1620 O   0  0  0  0  0  0  0  0  0  0  0  0
   34.7659   23.4187   -4.0744 C   0  0  0  0  0  0  0  0  0  0  0  0
   35.6348   22.8478   -4.7794 O   0  0  0  0  0  0  0  0  0  0  0  0
   35.1838   24.1821   -3.0579 N   0  0  0  0  0  0  0  0  0  0  0  0
  1  2  1  0
  2  3  2  0
  3  4  1  0
  4  5  2  0
  5  6  1  0
  6  7  2  0
  7  8  1  0
  9  8  1  6
  9 10  1  0
 10 11  1  0
 11 12  1  6
 12 13  1  0
 13 14  1  0
 14 15  2  0
 14 16  1  6
 14 17  1  0
 17 18  1  0
 18 19  2  0
 18 20  1  6
 18 21  1  0
 21 22  1  0
 22 23  1  0
 22 24  1  0
 22 25  2  0
 11 26  1  0
 26 27  1  1
 26 28  1  0
 28 29  1  1
  5 30  1  0
 30 31  2  0
 30 32  1  0
 32  2  1  0
  8  4  1  0
 28  9  1  0
M  END
$$$$
