
     RDKit          3D

 32 34  0  0  0  0  0  0  0  0999 V2000
   34.8336   25.5788   -1.5760 N   0  0  0  0  0  0  0  0  0  0  0  0
   34.3629   24.7707   -2.6398 C   0  0  0  0  0  0  0  0  0  0  0  0
   33.0311   24.6026   -2.7667 N   0  0  0  0  0  0  0  0  0  0  0  0
   32.5518   23.8497   -3.7548 C   0  0  0  0  0  0  0  0  0  0  0  0
   33.4393   23.2550   -4.6320 C   0  0  0  0  0  0  0  0  0  0  0  0
   32.7019   22.5674   -5.5114 N   0  0  0  0  0  0  0  0  0  0  0  0
   31.4040   22.7269   -5.1952 C   0  0  0  0  0  0  0  0  0  0  0  0
   31.3001   23.5169   -4.1119 N   0  0  0  0  0  0  0  0  0  0  0  0
   30.0518   23.9222   -3.4648 C   0  0  2  0  0  0  0  0  0  0  0  0
   29.1361   22.8982   -3.6760 O   0  0  0  0  0  0  0  0  0  0  0  0
   27.9010   23.5293   -3.6393 C   0  0  2  0  0  0  0  0  0  0  0  0
   26.7723   22.6443   -4.0518 C   0  0  0  0  0  0  0  0  0  0  0  0
   26.3027   22.8623   -5.3234 O   0  0  0  0  0  0  0  0  0  0  0  0
   26.4994   21.4111   -6.1870 P   0  0  2  0  0  5  0  0  0  0  0  0
   27.9525   21.0222   -6.2482 O   0  0  0  0  0  0  0  0  0  0  0  0
   25.8993   21.6537   -7.7528 O   0  0  0  0  0  0  0  0  0  0  0  0
   25.6484   20.1441   -5.4962 O   0  0  0  0  0  0  0  0  0  0  0  0
   25.7374   18.8352   -6.5951 P   0  0  2  0  0  5  0  0  0  0  0  0
   27.0990   18.2059   -6.4469 O   0  0  0  0  0  0  0  0  0  0  0  0
   25.5107   19.4949   -8.1359 O   0  0  0  0  0  0  0  0  0  0  0  0
   24.4926   17.7358   -6.3171 O   0  0  0  0  0  0  0  0  0  0  0  0
   23.0374   18.5061   -6.7008 P   0  0  0  0  0  5  0  0  0  0  0  0
   23.1731   20.1902   -6.5014 O   0  0  0  0  0  0  0  0  0  0  0  0
   22.5882   18.2147   -8.3073 O   0  0  0  0  0  0  0  0  0  0  0  0
   21.7432   17.9704   -5.7001 S   0  0  0  0  0  0  0  0  0  0  0  0
   28.1098   24.7125   -4.5258 C   0  0  1  0  0  0  0  0  0  0  0  0
   27.1635   25.6887   -4.1847 O   0  0  0  0  0  0  0  0  0  0  0  0
   29.4946   25.1579   -4.1019 C   0  0  1  0  0  0  0  0  0  0  0  0
   29.3553   26.1278   -3.1028 O   0  0  0  0  0  0  0  0  0  0  0  0
   34.7986   23.4355   -4.4904 C   0  0  0  0  0  0  0  0  0  0  0  0
   35.6419   22.9155   -5.2626 O   0  0  0  0  0  0  0  0  0  0  0  0
   35.2507   24.1977   -3.4877 N   0  0  0  0  0  0  0  0  0  0  0  0
  1  2  1  0
  2  3  2  0
  3  4  1  0
  4  5  2  0
  5  6  1  0
  6  7  2  0
  7  8  1  0
  9  8  1  6
  9 10  1  0
 10 11  1  0
 11 12  1  6
 12 13  1  0
 13 14  1  0
 14 15  2  0
 14 16  1  6
 14 17  1  0
 17 18  1  0
 18 19  2  0
 18 20  1  6
 18 21  1  0
 21 22  1  0
 22 23  1  0
 22 24  1  0
 22 25  2  0
 11 26  1  0
 26 27  1  1
 26 28  1  0
 28 29  1  1
  5 30  1  0
 30 31  2  0
 30 32  1  0
 32  2  1  0
  8  4  1  0
 28  9  1  0
M  END
$$$$
