
     RDKit          3D

 32 34  0  0  0  0  0  0  0  0999 V2000
   34.8269   24.6065   -0.9336 N   0  0  0  0  0  0  0  0  0  0  0  0
   34.3901   24.0345   -2.1535 C   0  0  0  0  0  0  0  0  0  0  0  0
   33.0689   24.0479   -2.4225 N   0  0  0  0  0  0  0  0  0  0  0  0
   32.6213   23.5192   -3.5597 C   0  0  0  0  0  0  0  0  0  0  0  0
   33.5302   22.9660   -4.4421 C   0  0  0  0  0  0  0  0  0  0  0  0
   32.8225   22.5154   -5.4843 N   0  0  0  0  0  0  0  0  0  0  0  0
   31.5220   22.7774   -5.2609 C   0  0  0  0  0  0  0  0  0  0  0  0
   31.3866   23.3972   -4.0751 N   0  0  0  0  0  0  0  0  0  0  0  0
   30.1256   23.8432   -3.4817 C   0  0  2  0  0  0  0  0  0  0  0  0
   29.1909   22.8424   -3.7191 O   0  0  0  0  0  0  0  0  0  0  0  0
   27.9732   23.5075   -3.7371 C   0  0  2  0  0  0  0  0  0  0  0  0
   26.8375   22.6493   -4.1854 C   0  0  0  0  0  0  0  0  0  0  0  0
   26.3143   22.9781   -5.4114 O   0  0  0  0  0  0  0  0  0  0  0  0
   26.5276   21.6307   -6.4261 P   0  0  2  0  0  5  0  0  0  0  0  0
   27.9322   21.5899   -6.9667 O   0  0  0  0  0  0  0  0  0  0  0  0
   25.4206   21.7616   -7.7020 O   0  0  0  0  0  0  0  0  0  0  0  0
   26.2326   20.1866   -5.6297 O   0  0  0  0  0  0  0  0  0  0  0  0
   26.0088   18.9956   -6.8381 P   0  0  2  0  0  5  0  0  0  0  0  0
   27.3610   18.4146   -7.1631 O   0  0  0  0  0  0  0  0  0  0  0  0
   25.3274   19.7914   -8.1660 O   0  0  0  0  0  0  0  0  0  0  0  0
   24.9163   17.8215   -6.3249 O   0  0  0  0  0  0  0  0  0  0  0  0
   23.3644   18.4805   -6.4491 P   0  0  0  0  0  5  0  0  0  0  0  0
   23.3315   20.0701   -5.8438 O   0  0  0  0  0  0  0  0  0  0  0  0
   22.8422   18.5342   -8.0591 O   0  0  0  0  0  0  0  0  0  0  0  0
   22.2052   17.5668   -5.5632 S   0  0  0  0  0  0  0  0  0  0  0  0
   28.2493   24.6750   -4.6259 C   0  0  1  0  0  0  0  0  0  0  0  0
   27.3178   25.6803   -4.3317 O   0  0  0  0  0  0  0  0  0  0  0  0
   29.6283   25.0869   -4.1520 C   0  0  1  0  0  0  0  0  0  0  0  0
   29.4770   26.0708   -3.1685 O   0  0  0  0  0  0  0  0  0  0  0  0
   34.8782   22.9592   -4.1541 C   0  0  0  0  0  0  0  0  0  0  0  0
   35.7400   22.4682   -4.9249 O   0  0  0  0  0  0  0  0  0  0  0  0
   35.2984   23.4978   -3.0035 N   0  0  0  0  0  0  0  0  0  0  0  0
  1  2  1  0
  2  3  2  0
  3  4  1  0
  4  5  2  0
  5  6  1  0
  6  7  2  0
  7  8  1  0
  9  8  1  6
  9 10  1  0
 10 11  1  0
 11 12  1  6
 12 13  1  0
 13 14  1  0
 14 15  2  0
 14 16  1  6
 14 17  1  0
 17 18  1  0
 18 19  2  0
 18 20  1  6
 18 21  1  0
 21 22  1  0
 22 23  1  0
 22 24  1  0
 22 25  2  0
 11 26  1  0
 26 27  1  1
 26 28  1  0
 28 29  1  1
  5 30  1  0
 30 31  2  0
 30 32  1  0
 32  2  1  0
  8  4  1  0
 28  9  1  0
M  END
$$$$
