
     RDKit          3D

 32 34  0  0  0  0  0  0  0  0999 V2000
   34.8830   25.6383   -1.5020 N   0  0  0  0  0  0  0  0  0  0  0  0
   34.4261   24.7715   -2.5247 C   0  0  0  0  0  0  0  0  0  0  0  0
   33.0958   24.6016   -2.6641 N   0  0  0  0  0  0  0  0  0  0  0  0
   32.6292   23.7942   -3.6146 C   0  0  0  0  0  0  0  0  0  0  0  0
   33.5283   23.1458   -4.4405 C   0  0  0  0  0  0  0  0  0  0  0  0
   32.8022   22.4110   -5.2907 N   0  0  0  0  0  0  0  0  0  0  0  0
   31.5000   22.5939   -5.0063 C   0  0  0  0  0  0  0  0  0  0  0  0
   31.3820   23.4463   -3.9729 N   0  0  0  0  0  0  0  0  0  0  0  0
   30.1251   23.8937   -3.3718 C   0  0  2  0  0  0  0  0  0  0  0  0
   29.1837   22.9013   -3.6178 O   0  0  0  0  0  0  0  0  0  0  0  0
   27.9701   23.5740   -3.6259 C   0  0  2  0  0  0  0  0  0  0  0  0
   26.8281   22.7277   -4.0808 C   0  0  0  0  0  0  0  0  0  0  0  0
   26.3292   23.0483   -5.3190 O   0  0  0  0  0  0  0  0  0  0  0  0
   26.4505   21.6548   -6.2855 P   0  0  2  0  0  5  0  0  0  0  0  0
   27.7633   20.9568   -6.0488 O   0  0  0  0  0  0  0  0  0  0  0  0
   26.3352   22.1357   -7.9061 O   0  0  0  0  0  0  0  0  0  0  0  0
   25.2165   20.5639   -5.9794 O   0  0  0  0  0  0  0  0  0  0  0  0
   25.6161   19.1233   -6.8123 P   0  0  2  0  0  5  0  0  0  0  0  0
   27.0758   18.8419   -6.5643 O   0  0  0  0  0  0  0  0  0  0  0  0
   25.2986   19.4187   -8.4472 O   0  0  0  0  0  0  0  0  0  0  0  0
   24.6281   17.8529   -6.3169 O   0  0  0  0  0  0  0  0  0  0  0  0
   23.0250   18.3230   -6.5767 P   0  0  0  0  0  5  0  0  0  0  0  0
   22.8848   20.0185   -6.5830 O   0  0  0  0  0  0  0  0  0  0  0  0
   22.4472   17.7553   -8.0637 O   0  0  0  0  0  0  0  0  0  0  0  0
   21.9729   17.7227   -5.3535 S   0  0  0  0  0  0  0  0  0  0  0  0
   28.2514   24.7493   -4.5027 C   0  0  1  0  0  0  0  0  0  0  0  0
   27.3268   25.7571   -4.1956 O   0  0  0  0  0  0  0  0  0  0  0  0
   29.6340   25.1475   -4.0275 C   0  0  1  0  0  0  0  0  0  0  0  0
   29.4909   26.1217   -3.0332 O   0  0  0  0  0  0  0  0  0  0  0  0
   34.8859   23.3287   -4.2866 C   0  0  0  0  0  0  0  0  0  0  0  0
   35.7394   22.7611   -5.0128 O   0  0  0  0  0  0  0  0  0  0  0  0
   35.3251   24.1463   -3.3225 N   0  0  0  0  0  0  0  0  0  0  0  0
  1  2  1  0
  2  3  2  0
  3  4  1  0
  4  5  2  0
  5  6  1  0
  6  7  2  0
  7  8  1  0
  9  8  1  6
  9 10  1  0
 10 11  1  0
 11 12  1  6
 12 13  1  0
 13 14  1  0
 14 15  2  0
 14 16  1  6
 14 17  1  0
 17 18  1  0
 18 19  2  0
 18 20  1  6
 18 21  1  0
 21 22  1  0
 22 23  1  0
 22 24  1  0
 22 25  2  0
 11 26  1  0
 26 27  1  1
 26 28  1  0
 28 29  1  1
  5 30  1  0
 30 31  2  0
 30 32  1  0
 32  2  1  0
  8  4  1  0
 28  9  1  0
M  END
$$$$
