
     RDKit          3D

 32 34  0  0  0  0  0  0  0  0999 V2000
   34.8865   25.7656   -1.9177 N   0  0  0  0  0  0  0  0  0  0  0  0
   34.3799   24.8587   -2.8805 C   0  0  0  0  0  0  0  0  0  0  0  0
   33.0426   24.7118   -2.9708 N   0  0  0  0  0  0  0  0  0  0  0  0
   32.5298   23.8682   -3.8644 C   0  0  0  0  0  0  0  0  0  0  0  0
   33.3889   23.1592   -4.6830 C   0  0  0  0  0  0  0  0  0  0  0  0
   32.6214   22.3989   -5.4722 N   0  0  0  0  0  0  0  0  0  0  0  0
   31.3329   22.6248   -5.1582 C   0  0  0  0  0  0  0  0  0  0  0  0
   31.2650   23.5306   -4.1665 N   0  0  0  0  0  0  0  0  0  0  0  0
   30.0371   24.0355   -3.5512 C   0  0  2  0  0  0  0  0  0  0  0  0
   29.0839   23.0308   -3.6678 O   0  0  0  0  0  0  0  0  0  0  0  0
   27.8724   23.7071   -3.6803 C   0  0  2  0  0  0  0  0  0  0  0  0
   26.7096   22.8310   -4.0085 C   0  0  0  0  0  0  0  0  0  0  0  0
   27.0266   21.5169   -4.2491 O   0  0  0  0  0  0  0  0  0  0  0  0
   26.9715   21.2872   -5.9327 P   0  0  2  0  0  5  0  0  0  0  0  0
   27.8405   22.2961   -6.6352 O   0  0  0  0  0  0  0  0  0  0  0  0
   25.3612   21.4661   -6.4284 O   0  0  0  0  0  0  0  0  0  0  0  0
   27.4841   19.7559   -6.3788 O   0  0  0  0  0  0  0  0  0  0  0  0
   26.0984   18.9133   -6.9251 P   0  0  2  0  0  5  0  0  0  0  0  0
   26.5167   17.4993   -7.2369 O   0  0  0  0  0  0  0  0  0  0  0  0
   25.5605   19.7316   -8.3043 O   0  0  0  0  0  0  0  0  0  0  0  0
   24.8690   18.9765   -5.7762 O   0  0  0  0  0  0  0  0  0  0  0  0
   23.4467   18.4489   -6.5225 P   0  0  0  0  0  5  0  0  0  0  0  0
   22.9026   19.5884   -7.6626 O   0  0  0  0  0  0  0  0  0  0  0  0
   23.6821   16.9823   -7.3357 O   0  0  0  0  0  0  0  0  0  0  0  0
   22.1758   18.2083   -5.3864 S   0  0  0  0  0  0  0  0  0  0  0  0
   28.1161   24.8003   -4.6677 C   0  0  1  0  0  0  0  0  0  0  0  0
   27.2080   25.8361   -4.4084 O   0  0  0  0  0  0  0  0  0  0  0  0
   29.5193   25.2304   -4.2910 C   0  0  1  0  0  0  0  0  0  0  0  0
   29.4227   26.2880   -3.3797 O   0  0  0  0  0  0  0  0  0  0  0  0
   34.7542   23.3193   -4.5797 C   0  0  0  0  0  0  0  0  0  0  0  0
   35.5725   22.6970   -5.3016 O   0  0  0  0  0  0  0  0  0  0  0  0
   35.2402   24.1743   -3.6723 N   0  0  0  0  0  0  0  0  0  0  0  0
  1  2  1  0
  2  3  2  0
  3  4  1  0
  4  5  2  0
  5  6  1  0
  6  7  2  0
  7  8  1  0
  9  8  1  6
  9 10  1  0
 10 11  1  0
 11 12  1  6
 12 13  1  0
 13 14  1  0
 14 15  2  0
 14 16  1  6
 14 17  1  0
 17 18  1  0
 18 19  2  0
 18 20  1  6
 18 21  1  0
 21 22  1  0
 22 23  1  0
 22 24  1  0
 22 25  2  0
 11 26  1  0
 26 27  1  1
 26 28  1  0
 28 29  1  1
  5 30  1  0
 30 31  2  0
 30 32  1  0
 32  2  1  0
  8  4  1  0
 28  9  1  0
M  END
$$$$
