
     RDKit          3D

 32 34  0  0  0  0  0  0  0  0999 V2000
   35.0614   25.2924   -1.7156 N   0  0  0  0  0  0  0  0  0  0  0  0
   34.5194   24.5706   -2.8070 C   0  0  0  0  0  0  0  0  0  0  0  0
   33.1785   24.4535   -2.8861 N   0  0  0  0  0  0  0  0  0  0  0  0
   32.6329   23.7820   -3.8983 C   0  0  0  0  0  0  0  0  0  0  0  0
   33.4622   23.2178   -4.8495 C   0  0  0  0  0  0  0  0  0  0  0  0
   32.6656   22.6127   -5.7378 N   0  0  0  0  0  0  0  0  0  0  0  0
   31.3883   22.7923   -5.3557 C   0  0  0  0  0  0  0  0  0  0  0  0
   31.3567   23.5131   -4.2208 N   0  0  0  0  0  0  0  0  0  0  0  0
   30.1510   23.9148   -3.4954 C   0  0  2  0  0  0  0  0  0  0  0  0
   29.2225   22.8935   -3.6579 O   0  0  0  0  0  0  0  0  0  0  0  0
   27.9929   23.5257   -3.5407 C   0  0  2  0  0  0  0  0  0  0  0  0
   26.8397   22.6452   -3.8899 C   0  0  0  0  0  0  0  0  0  0  0  0
   26.2916   22.8753   -5.1275 O   0  0  0  0  0  0  0  0  0  0  0  0
   26.4426   21.4356   -6.0192 P   0  0  2  0  0  5  0  0  0  0  0  0
   27.8539   21.2630   -6.5142 O   0  0  0  0  0  0  0  0  0  0  0  0
   25.3759   21.5244   -7.3325 O   0  0  0  0  0  0  0  0  0  0  0  0
   26.0383   20.0856   -5.1132 O   0  0  0  0  0  0  0  0  0  0  0  0
   25.7526   18.8156   -6.2242 P   0  0  2  0  0  5  0  0  0  0  0  0
   27.0253   18.0168   -6.3423 O   0  0  0  0  0  0  0  0  0  0  0  0
   25.3314   19.5527   -7.6871 O   0  0  0  0  0  0  0  0  0  0  0  0
   24.4497   17.8706   -5.7294 O   0  0  0  0  0  0  0  0  0  0  0  0
   23.0392   18.6117   -6.2946 P   0  0  0  0  0  5  0  0  0  0  0  0
   23.2400   20.2981   -6.3954 O   0  0  0  0  0  0  0  0  0  0  0  0
   22.6219   18.0521   -7.8374 O   0  0  0  0  0  0  0  0  0  0  0  0
   21.6968   18.3128   -5.2591 S   0  0  0  0  0  0  0  0  0  0  0  0
   28.1489   24.7154   -4.4294 C   0  0  1  0  0  0  0  0  0  0  0  0
   27.2268   25.6901   -4.0235 O   0  0  0  0  0  0  0  0  0  0  0  0
   29.5578   25.1560   -4.0878 C   0  0  1  0  0  0  0  0  0  0  0  0
   29.4816   26.1184   -3.0748 O   0  0  0  0  0  0  0  0  0  0  0  0
   34.8316   23.3455   -4.7561 C   0  0  0  0  0  0  0  0  0  0  0  0
   35.6237   22.8503   -5.5960 O   0  0  0  0  0  0  0  0  0  0  0  0
   35.3510   24.0260   -3.7276 N   0  0  0  0  0  0  0  0  0  0  0  0
  1  2  1  0
  2  3  2  0
  3  4  1  0
  4  5  2  0
  5  6  1  0
  6  7  2  0
  7  8  1  0
  9  8  1  6
  9 10  1  0
 10 11  1  0
 11 12  1  6
 12 13  1  0
 13 14  1  0
 14 15  2  0
 14 16  1  6
 14 17  1  0
 17 18  1  0
 18 19  2  0
 18 20  1  6
 18 21  1  0
 21 22  1  0
 22 23  1  0
 22 24  1  0
 22 25  2  0
 11 26  1  0
 26 27  1  1
 26 28  1  0
 28 29  1  1
  5 30  1  0
 30 31  2  0
 30 32  1  0
 32  2  1  0
  8  4  1  0
 28  9  1  0
M  END
$$$$
