
     RDKit          3D

 32 34  0  0  0  0  0  0  0  0999 V2000
   34.8711   25.2218   -1.2662 N   0  0  0  0  0  0  0  0  0  0  0  0
   34.4342   24.5353   -2.4255 C   0  0  0  0  0  0  0  0  0  0  0  0
   33.1067   24.4074   -2.6239 N   0  0  0  0  0  0  0  0  0  0  0  0
   32.6588   23.7683   -3.7027 C   0  0  0  0  0  0  0  0  0  0  0  0
   33.5740   23.2482   -4.5987 C   0  0  0  0  0  0  0  0  0  0  0  0
   32.8645   22.6682   -5.5735 N   0  0  0  0  0  0  0  0  0  0  0  0
   31.5569   22.8204   -5.2965 C   0  0  0  0  0  0  0  0  0  0  0  0
   31.4186   23.4984   -4.1434 N   0  0  0  0  0  0  0  0  0  0  0  0
   30.1500   23.8606   -3.5104 C   0  0  2  0  0  0  0  0  0  0  0  0
   29.2693   22.8102   -3.7400 O   0  0  0  0  0  0  0  0  0  0  0  0
   28.0148   23.4026   -3.7157 C   0  0  2  0  0  0  0  0  0  0  0  0
   26.9197   22.4858   -4.1486 C   0  0  0  0  0  0  0  0  0  0  0  0
   26.3164   22.8262   -5.3339 O   0  0  0  0  0  0  0  0  0  0  0  0
   26.6449   21.5785   -6.4411 P   0  0  2  0  0  5  0  0  0  0  0  0
   27.9217   21.8548   -7.1894 O   0  0  0  0  0  0  0  0  0  0  0  0
   25.3461   21.4920   -7.5258 O   0  0  0  0  0  0  0  0  0  0  0  0
   26.7924   20.0887   -5.6891 O   0  0  0  0  0  0  0  0  0  0  0  0
   25.8342   18.9891   -6.5844 P   0  0  2  0  0  5  0  0  0  0  0  0
   26.6309   17.7209   -6.7530 O   0  0  0  0  0  0  0  0  0  0  0  0
   25.5165   19.7374   -8.0676 O   0  0  0  0  0  0  0  0  0  0  0  0
   24.3597   18.7192   -5.8172 O   0  0  0  0  0  0  0  0  0  0  0  0
   23.1413   18.9088   -6.9738 P   0  0  0  0  0  5  0  0  0  0  0  0
   23.0044   20.5371   -7.4475 O   0  0  0  0  0  0  0  0  0  0  0  0
   23.4605   17.9957   -8.3637 O   0  0  0  0  0  0  0  0  0  0  0  0
   21.6047   18.4142   -6.3757 S   0  0  0  0  0  0  0  0  0  0  0  0
   28.1984   24.5974   -4.5922 C   0  0  1  0  0  0  0  0  0  0  0  0
   27.2179   25.5416   -4.2576 O   0  0  0  0  0  0  0  0  0  0  0  0
   29.5631   25.0826   -4.1472 C   0  0  1  0  0  0  0  0  0  0  0  0
   29.3808   26.0412   -3.1442 O   0  0  0  0  0  0  0  0  0  0  0  0
   34.9285   23.3864   -4.3833 C   0  0  0  0  0  0  0  0  0  0  0  0
   35.7962   22.9308   -5.1691 O   0  0  0  0  0  0  0  0  0  0  0  0
   35.3488   24.0337   -3.2901 N   0  0  0  0  0  0  0  0  0  0  0  0
  1  2  1  0
  2  3  2  0
  3  4  1  0
  4  5  2  0
  5  6  1  0
  6  7  2  0
  7  8  1  0
  9  8  1  6
  9 10  1  0
 10 11  1  0
 11 12  1  6
 12 13  1  0
 13 14  1  0
 14 15  2  0
 14 16  1  6
 14 17  1  0
 17 18  1  0
 18 19  2  0
 18 20  1  6
 18 21  1  0
 21 22  1  0
 22 23  1  0
 22 24  1  0
 22 25  2  0
 11 26  1  0
 26 27  1  1
 26 28  1  0
 28 29  1  1
  5 30  1  0
 30 31  2  0
 30 32  1  0
 32  2  1  0
  8  4  1  0
 28  9  1  0
M  END
$$$$
