
     RDKit          3D

 32 34  0  0  0  0  0  0  0  0999 V2000
   34.5794   24.6411   -0.9053 N   0  0  0  0  0  0  0  0  0  0  0  0
   34.1370   24.1067   -2.1401 C   0  0  0  0  0  0  0  0  0  0  0  0
   32.8179   24.1547   -2.4153 N   0  0  0  0  0  0  0  0  0  0  0  0
   32.3652   23.6619   -3.5665 C   0  0  0  0  0  0  0  0  0  0  0  0
   33.2667   23.1094   -4.4568 C   0  0  0  0  0  0  0  0  0  0  0  0
   32.5551   22.6981   -5.5125 N   0  0  0  0  0  0  0  0  0  0  0  0
   31.2594   22.9830   -5.2895 C   0  0  0  0  0  0  0  0  0  0  0  0
   31.1309   23.5784   -4.0906 N   0  0  0  0  0  0  0  0  0  0  0  0
   29.8766   24.0380   -3.4933 C   0  0  2  0  0  0  0  0  0  0  0  0
   28.9401   23.0310   -3.6948 O   0  0  0  0  0  0  0  0  0  0  0  0
   27.7217   23.6945   -3.7147 C   0  0  2  0  0  0  0  0  0  0  0  0
   26.5816   22.8247   -4.1281 C   0  0  0  0  0  0  0  0  0  0  0  0
   26.0453   23.1211   -5.3567 O   0  0  0  0  0  0  0  0  0  0  0  0
   26.4290   21.8318   -6.3964 P   0  0  2  0  0  5  0  0  0  0  0  0
   27.8029   22.0144   -6.9843 O   0  0  0  0  0  0  0  0  0  0  0  0
   25.2707   21.7995   -7.6325 O   0  0  0  0  0  0  0  0  0  0  0  0
   26.3898   20.3528   -5.6104 O   0  0  0  0  0  0  0  0  0  0  0  0
   26.2608   19.1540   -6.8249 P   0  0  2  0  0  5  0  0  0  0  0  0
   27.6585   18.7672   -7.2356 O   0  0  0  0  0  0  0  0  0  0  0  0
   25.4012   19.8613   -8.0983 O   0  0  0  0  0  0  0  0  0  0  0  0
   25.3705   17.8362   -6.2716 O   0  0  0  0  0  0  0  0  0  0  0  0
   23.7334   18.2415   -6.3899 P   0  0  0  0  0  5  0  0  0  0  0  0
   23.3927   19.6503   -5.4991 O   0  0  0  0  0  0  0  0  0  0  0  0
   23.2820   18.5291   -7.9964 O   0  0  0  0  0  0  0  0  0  0  0  0
   22.7163   16.9906   -5.7863 S   0  0  0  0  0  0  0  0  0  0  0  0
   27.9860   24.8400   -4.6352 C   0  0  1  0  0  0  0  0  0  0  0  0
   27.0571   25.8516   -4.3547 O   0  0  0  0  0  0  0  0  0  0  0  0
   29.3701   25.2644   -4.1880 C   0  0  1  0  0  0  0  0  0  0  0  0
   29.2295   26.2721   -3.2273 O   0  0  0  0  0  0  0  0  0  0  0  0
   34.6127   23.0669   -4.1624 C   0  0  0  0  0  0  0  0  0  0  0  0
   35.4679   22.5750   -4.9401 O   0  0  0  0  0  0  0  0  0  0  0  0
   35.0381   23.5699   -2.9977 N   0  0  0  0  0  0  0  0  0  0  0  0
  1  2  1  0
  2  3  2  0
  3  4  1  0
  4  5  2  0
  5  6  1  0
  6  7  2  0
  7  8  1  0
  9  8  1  6
  9 10  1  0
 10 11  1  0
 11 12  1  6
 12 13  1  0
 13 14  1  0
 14 15  2  0
 14 16  1  6
 14 17  1  0
 17 18  1  0
 18 19  2  0
 18 20  1  6
 18 21  1  0
 21 22  1  0
 22 23  1  0
 22 24  1  0
 22 25  2  0
 11 26  1  0
 26 27  1  1
 26 28  1  0
 28 29  1  1
  5 30  1  0
 30 31  2  0
 30 32  1  0
 32  2  1  0
  8  4  1  0
 28  9  1  0
M  END
$$$$
