
     RDKit          3D

 32 34  0  0  0  0  0  0  0  0999 V2000
   34.8640   25.7715   -1.5570 N   0  0  0  0  0  0  0  0  0  0  0  0
   34.4417   24.9229   -2.6095 C   0  0  0  0  0  0  0  0  0  0  0  0
   33.1222   24.6748   -2.7329 N   0  0  0  0  0  0  0  0  0  0  0  0
   32.6881   23.8817   -3.7105 C   0  0  0  0  0  0  0  0  0  0  0  0
   33.6090   23.3289   -4.5806 C   0  0  0  0  0  0  0  0  0  0  0  0
   32.9134   22.5874   -5.4500 N   0  0  0  0  0  0  0  0  0  0  0  0
   31.6084   22.6740   -5.1347 C   0  0  0  0  0  0  0  0  0  0  0  0
   31.4581   23.4709   -4.0619 N   0  0  0  0  0  0  0  0  0  0  0  0
   30.1881   23.8103   -3.4191 C   0  0  2  0  0  0  0  0  0  0  0  0
   29.3216   22.7485   -3.6505 O   0  0  0  0  0  0  0  0  0  0  0  0
   28.0588   23.3222   -3.6149 C   0  0  2  0  0  0  0  0  0  0  0  0
   26.9746   22.3922   -4.0473 C   0  0  0  0  0  0  0  0  0  0  0  0
   26.4584   22.6471   -5.2937 O   0  0  0  0  0  0  0  0  0  0  0  0
   26.6344   21.2260   -6.2104 P   0  0  2  0  0  5  0  0  0  0  0  0
   28.0649   21.0478   -6.6446 O   0  0  0  0  0  0  0  0  0  0  0  0
   25.6299   21.3569   -7.5685 O   0  0  0  0  0  0  0  0  0  0  0  0
   26.1744   19.8610   -5.3550 O   0  0  0  0  0  0  0  0  0  0  0  0
   25.8856   18.6314   -6.5097 P   0  0  2  0  0  5  0  0  0  0  0  0
   27.1292   17.7844   -6.5961 O   0  0  0  0  0  0  0  0  0  0  0  0
   25.5562   19.4208   -7.9689 O   0  0  0  0  0  0  0  0  0  0  0  0
   24.5263   17.7287   -6.0940 O   0  0  0  0  0  0  0  0  0  0  0  0
   23.1636   18.6431   -6.5004 P   0  0  0  0  0  5  0  0  0  0  0  0
   23.3141   20.2394   -5.9314 O   0  0  0  0  0  0  0  0  0  0  0  0
   22.9449   18.7154   -8.1780 O   0  0  0  0  0  0  0  0  0  0  0  0
   21.7236   17.9871   -5.8223 S   0  0  0  0  0  0  0  0  0  0  0  0
   28.2195   24.5253   -4.4844 C   0  0  1  0  0  0  0  0  0  0  0  0
   27.2273   25.4528   -4.1378 O   0  0  0  0  0  0  0  0  0  0  0  0
   29.5796   25.0276   -4.0443 C   0  0  1  0  0  0  0  0  0  0  0  0
   29.3892   25.9768   -3.0339 O   0  0  0  0  0  0  0  0  0  0  0  0
   34.9553   23.5913   -4.4426 C   0  0  0  0  0  0  0  0  0  0  0  0
   35.8277   23.1118   -5.2087 O   0  0  0  0  0  0  0  0  0  0  0  0
   35.3618   24.3921   -3.4505 N   0  0  0  0  0  0  0  0  0  0  0  0
  1  2  1  0
  2  3  2  0
  3  4  1  0
  4  5  2  0
  5  6  1  0
  6  7  2  0
  7  8  1  0
  9  8  1  6
  9 10  1  0
 10 11  1  0
 11 12  1  6
 12 13  1  0
 13 14  1  0
 14 15  2  0
 14 16  1  6
 14 17  1  0
 17 18  1  0
 18 19  2  0
 18 20  1  6
 18 21  1  0
 21 22  1  0
 22 23  1  0
 22 24  1  0
 22 25  2  0
 11 26  1  0
 26 27  1  1
 26 28  1  0
 28 29  1  1
  5 30  1  0
 30 31  2  0
 30 32  1  0
 32  2  1  0
  8  4  1  0
 28  9  1  0
M  END
$$$$
