
     RDKit          3D

 32 34  0  0  0  0  0  0  0  0999 V2000
   34.7825   25.0978   -1.0378 N   0  0  0  0  0  0  0  0  0  0  0  0
   34.3851   24.4116   -2.2114 C   0  0  0  0  0  0  0  0  0  0  0  0
   33.0661   24.3190   -2.4754 N   0  0  0  0  0  0  0  0  0  0  0  0
   32.6549   23.6812   -3.5696 C   0  0  0  0  0  0  0  0  0  0  0  0
   33.5988   23.1260   -4.4133 C   0  0  0  0  0  0  0  0  0  0  0  0
   32.9230   22.5558   -5.4173 N   0  0  0  0  0  0  0  0  0  0  0  0
   31.6080   22.7477   -5.2082 C   0  0  0  0  0  0  0  0  0  0  0  0
   31.4313   23.4416   -4.0699 N   0  0  0  0  0  0  0  0  0  0  0  0
   30.1433   23.8460   -3.5053 C   0  0  2  0  0  0  0  0  0  0  0  0
   29.2471   22.8158   -3.7643 O   0  0  0  0  0  0  0  0  0  0  0  0
   28.0093   23.4411   -3.8099 C   0  0  2  0  0  0  0  0  0  0  0  0
   26.9124   22.5471   -4.2842 C   0  0  0  0  0  0  0  0  0  0  0  0
   26.4017   22.8647   -5.5184 O   0  0  0  0  0  0  0  0  0  0  0  0
   26.6390   21.5137   -6.5230 P   0  0  2  0  0  5  0  0  0  0  0  0
   28.0539   21.4752   -7.0359 O   0  0  0  0  0  0  0  0  0  0  0  0
   25.5565   21.6356   -7.8207 O   0  0  0  0  0  0  0  0  0  0  0  0
   26.3331   20.0721   -5.7262 O   0  0  0  0  0  0  0  0  0  0  0  0
   26.0400   18.8956   -6.9339 P   0  0  2  0  0  5  0  0  0  0  0  0
   27.3627   18.2670   -7.2901 O   0  0  0  0  0  0  0  0  0  0  0  0
   25.3600   19.7217   -8.2439 O   0  0  0  0  0  0  0  0  0  0  0  0
   24.9164   17.7599   -6.4017 O   0  0  0  0  0  0  0  0  0  0  0  0
   23.4100   18.5245   -6.3384 P   0  0  0  0  0  5  0  0  0  0  0  0
   23.3526   19.6438   -5.0584 O   0  0  0  0  0  0  0  0  0  0  0  0
   23.0830   19.3667   -7.7707 O   0  0  0  0  0  0  0  0  0  0  0  0
   22.1282   17.4006   -6.0991 S   0  0  0  0  0  0  0  0  0  0  0  0
   28.2677   24.6179   -4.6919 C   0  0  1  0  0  0  0  0  0  0  0  0
   27.2977   25.5922   -4.4187 O   0  0  0  0  0  0  0  0  0  0  0  0
   29.6214   25.0736   -4.1865 C   0  0  1  0  0  0  0  0  0  0  0  0
   29.4159   26.0511   -3.2064 O   0  0  0  0  0  0  0  0  0  0  0  0
   34.9442   23.2284   -4.1309 C   0  0  0  0  0  0  0  0  0  0  0  0
   35.8369   22.7402   -4.8676 O   0  0  0  0  0  0  0  0  0  0  0  0
   35.3272   23.8753   -3.0239 N   0  0  0  0  0  0  0  0  0  0  0  0
  1  2  1  0
  2  3  2  0
  3  4  1  0
  4  5  2  0
  5  6  1  0
  6  7  2  0
  7  8  1  0
  9  8  1  6
  9 10  1  0
 10 11  1  0
 11 12  1  6
 12 13  1  0
 13 14  1  0
 14 15  2  0
 14 16  1  6
 14 17  1  0
 17 18  1  0
 18 19  2  0
 18 20  1  6
 18 21  1  0
 21 22  1  0
 22 23  1  0
 22 24  1  0
 22 25  2  0
 11 26  1  0
 26 27  1  1
 26 28  1  0
 28 29  1  1
  5 30  1  0
 30 31  2  0
 30 32  1  0
 32  2  1  0
  8  4  1  0
 28  9  1  0
M  END
$$$$
