
     RDKit          3D

 32 34  0  0  0  0  0  0  0  0999 V2000
   34.9367   25.3621   -1.7370 N   0  0  0  0  0  0  0  0  0  0  0  0
   34.3992   24.5630   -2.7755 C   0  0  0  0  0  0  0  0  0  0  0  0
   33.0576   24.4823   -2.8834 N   0  0  0  0  0  0  0  0  0  0  0  0
   32.5161   23.7405   -3.8475 C   0  0  0  0  0  0  0  0  0  0  0  0
   33.3503   23.0670   -4.7200 C   0  0  0  0  0  0  0  0  0  0  0  0
   32.5571   22.4104   -5.5741 N   0  0  0  0  0  0  0  0  0  0  0  0
   31.2770   22.6644   -5.2473 C   0  0  0  0  0  0  0  0  0  0  0  0
   31.2403   23.4848   -4.1823 N   0  0  0  0  0  0  0  0  0  0  0  0
   30.0305   23.9884   -3.5313 C   0  0  2  0  0  0  0  0  0  0  0  0
   29.0712   22.9878   -3.6316 O   0  0  0  0  0  0  0  0  0  0  0  0
   27.8620   23.6680   -3.6071 C   0  0  2  0  0  0  0  0  0  0  0  0
   26.6882   22.7984   -3.9124 C   0  0  0  0  0  0  0  0  0  0  0  0
   27.0029   21.5229   -4.3114 O   0  0  0  0  0  0  0  0  0  0  0  0
   26.9532   21.5016   -6.0107 P   0  0  2  0  0  5  0  0  0  0  0  0
   27.8333   22.5816   -6.5814 O   0  0  0  0  0  0  0  0  0  0  0  0
   25.3466   21.7535   -6.4860 O   0  0  0  0  0  0  0  0  0  0  0  0
   27.4556   20.0322   -6.6394 O   0  0  0  0  0  0  0  0  0  0  0  0
   26.0394   19.1399   -6.9954 P   0  0  2  0  0  5  0  0  0  0  0  0
   26.3322   17.6878   -6.7172 O   0  0  0  0  0  0  0  0  0  0  0  0
   25.7057   19.4150   -8.6306 O   0  0  0  0  0  0  0  0  0  0  0  0
   24.7326   19.7104   -6.0998 O   0  0  0  0  0  0  0  0  0  0  0  0
   23.3515   18.8987   -6.6400 P   0  0  0  0  0  5  0  0  0  0  0  0
   23.0421   19.2526   -8.2751 O   0  0  0  0  0  0  0  0  0  0  0  0
   23.5274   17.2200   -6.5033 O   0  0  0  0  0  0  0  0  0  0  0  0
   21.9519   19.3435   -5.7418 S   0  0  0  0  0  0  0  0  0  0  0  0
   28.0839   24.7687   -4.5913 C   0  0  1  0  0  0  0  0  0  0  0  0
   27.1863   25.8052   -4.2999 O   0  0  0  0  0  0  0  0  0  0  0  0
   29.4977   25.1912   -4.2474 C   0  0  1  0  0  0  0  0  0  0  0  0
   29.4283   26.2413   -3.3251 O   0  0  0  0  0  0  0  0  0  0  0  0
   34.7204   23.1585   -4.5980 C   0  0  0  0  0  0  0  0  0  0  0  0
   35.5168   22.5649   -5.3669 O   0  0  0  0  0  0  0  0  0  0  0  0
   35.2355   23.9116   -3.6192 N   0  0  0  0  0  0  0  0  0  0  0  0
  1  2  1  0
  2  3  2  0
  3  4  1  0
  4  5  2  0
  5  6  1  0
  6  7  2  0
  7  8  1  0
  9  8  1  6
  9 10  1  0
 10 11  1  0
 11 12  1  6
 12 13  1  0
 13 14  1  0
 14 15  2  0
 14 16  1  1
 14 17  1  0
 17 18  1  0
 18 19  2  0
 18 20  1  6
 18 21  1  0
 21 22  1  0
 22 23  1  0
 22 24  1  0
 22 25  2  0
 11 26  1  0
 26 27  1  1
 26 28  1  0
 28 29  1  1
  5 30  1  0
 30 31  2  0
 30 32  1  0
 32  2  1  0
  8  4  1  0
 28  9  1  0
M  END
$$$$
