
     RDKit          3D

 32 34  0  0  0  0  0  0  0  0999 V2000
   34.8930   25.2181   -1.3308 N   0  0  0  0  0  0  0  0  0  0  0  0
   34.4126   24.4178   -2.3960 C   0  0  0  0  0  0  0  0  0  0  0  0
   33.0787   24.3326   -2.5731 N   0  0  0  0  0  0  0  0  0  0  0  0
   32.5903   23.5896   -3.5643 C   0  0  0  0  0  0  0  0  0  0  0  0
   33.4708   22.9194   -4.3928 C   0  0  0  0  0  0  0  0  0  0  0  0
   32.7250   22.2606   -5.2871 N   0  0  0  0  0  0  0  0  0  0  0  0
   31.4289   22.5101   -5.0267 C   0  0  0  0  0  0  0  0  0  0  0  0
   31.3344   23.3298   -3.9648 N   0  0  0  0  0  0  0  0  0  0  0  0
   30.0908   23.8290   -3.3769 C   0  0  2  0  0  0  0  0  0  0  0  0
   29.1354   22.8341   -3.5473 O   0  0  0  0  0  0  0  0  0  0  0  0
   27.9292   23.5190   -3.5822 C   0  0  2  0  0  0  0  0  0  0  0  0
   26.7720   22.6591   -3.9677 C   0  0  0  0  0  0  0  0  0  0  0  0
   26.1524   23.0163   -5.1396 O   0  0  0  0  0  0  0  0  0  0  0  0
   26.6604   21.9160   -6.3320 P   0  0  2  0  0  5  0  0  0  0  0  0
   27.9960   22.3226   -6.8955 O   0  0  0  0  0  0  0  0  0  0  0  0
   25.4933   21.9062   -7.5601 O   0  0  0  0  0  0  0  0  0  0  0  0
   26.7985   20.3566   -5.7354 O   0  0  0  0  0  0  0  0  0  0  0  0
   26.1524   19.3145   -6.9293 P   0  0  2  0  0  5  0  0  0  0  0  0
   26.3531   17.8976   -6.4563 O   0  0  0  0  0  0  0  0  0  0  0  0
   27.0117   19.6337   -8.3508 O   0  0  0  0  0  0  0  0  0  0  0  0
   24.5313   19.6677   -7.2169 O   0  0  0  0  0  0  0  0  0  0  0  0
   23.6141   18.3879   -6.6012 P   0  0  0  0  0  5  0  0  0  0  0  0
   23.4561   17.1468   -7.7540 O   0  0  0  0  0  0  0  0  0  0  0  0
   24.3338   17.7183   -5.2224 O   0  0  0  0  0  0  0  0  0  0  0  0
   22.0269   18.8883   -6.1607 S   0  0  0  0  0  0  0  0  0  0  0  0
   28.2112   24.6333   -4.5353 C   0  0  1  0  0  0  0  0  0  0  0  0
   27.3019   25.6692   -4.2806 O   0  0  0  0  0  0  0  0  0  0  0  0
   29.6044   25.0445   -4.1043 C   0  0  1  0  0  0  0  0  0  0  0  0
   29.4856   26.0811   -3.1719 O   0  0  0  0  0  0  0  0  0  0  0  0
   34.8324   23.0155   -4.2001 C   0  0  0  0  0  0  0  0  0  0  0  0
   35.6695   22.4250   -4.9270 O   0  0  0  0  0  0  0  0  0  0  0  0
   35.2937   23.7698   -3.1956 N   0  0  0  0  0  0  0  0  0  0  0  0
  1  2  1  0
  2  3  2  0
  3  4  1  0
  4  5  2  0
  5  6  1  0
  6  7  2  0
  7  8  1  0
  9  8  1  6
  9 10  1  0
 10 11  1  0
 11 12  1  6
 12 13  1  0
 13 14  1  0
 14 15  2  0
 14 16  1  6
 14 17  1  0
 17 18  1  0
 18 19  2  0
 18 20  1  6
 18 21  1  0
 21 22  1  0
 22 23  1  0
 22 24  1  0
 22 25  2  0
 11 26  1  0
 26 27  1  1
 26 28  1  0
 28 29  1  1
  5 30  1  0
 30 31  2  0
 30 32  1  0
 32  2  1  0
  8  4  1  0
 28  9  1  0
M  END
$$$$
