
     RDKit          3D

 32 34  0  0  0  0  0  0  0  0999 V2000
   34.9093   24.3727   -0.8984 N   0  0  0  0  0  0  0  0  0  0  0  0
   34.4959   23.9626   -2.1895 C   0  0  0  0  0  0  0  0  0  0  0  0
   33.1741   23.9432   -2.4553 N   0  0  0  0  0  0  0  0  0  0  0  0
   32.7481   23.5633   -3.6583 C   0  0  0  0  0  0  0  0  0  0  0  0
   33.6795   23.1955   -4.6111 C   0  0  0  0  0  0  0  0  0  0  0  0
   32.9902   22.8646   -5.7090 N   0  0  0  0  0  0  0  0  0  0  0  0
   31.6790   23.0198   -5.4512 C   0  0  0  0  0  0  0  0  0  0  0  0
   31.5183   23.4510   -4.1875 N   0  0  0  0  0  0  0  0  0  0  0  0
   30.2391   23.7360   -3.5367 C   0  0  2  0  0  0  0  0  0  0  0  0
   29.2957   22.8937   -4.1132 O   0  0  0  0  0  0  0  0  0  0  0  0
   28.0954   23.5754   -3.9724 C   0  0  2  0  0  0  0  0  0  0  0  0
   26.9652   22.9415   -4.7127 C   0  0  0  0  0  0  0  0  0  0  0  0
   27.0182   23.0817   -6.0775 O   0  0  0  0  0  0  0  0  0  0  0  0
   26.2486   21.7239   -6.7520 P   0  0  2  0  0  5  0  0  0  0  0  0
   26.4835   21.6638   -8.2379 O   0  0  0  0  0  0  0  0  0  0  0  0
   24.5897   21.8564   -6.4337 O   0  0  0  0  0  0  0  0  0  0  0  0
   26.7928   20.2896   -6.0789 O   0  0  0  0  0  0  0  0  0  0  0  0
   25.6852   19.0735   -6.5513 P   0  0  2  0  0  5  0  0  0  0  0  0
   26.1465   17.7739   -5.9431 O   0  0  0  0  0  0  0  0  0  0  0  0
   25.7244   19.0289   -8.2417 O   0  0  0  0  0  0  0  0  0  0  0  0
   24.1189   19.4770   -6.0827 O   0  0  0  0  0  0  0  0  0  0  0  0
   23.0970   18.2316   -6.5955 P   0  0  0  0  0  5  0  0  0  0  0  0
   21.5075   18.8007   -6.8057 O   0  0  0  0  0  0  0  0  0  0  0  0
   23.6081   17.5809   -8.0730 O   0  0  0  0  0  0  0  0  0  0  0  0
   23.0367   16.9403   -5.4586 S   0  0  0  0  0  0  0  0  0  0  0  0
   28.4416   24.9507   -4.4395 C   0  0  1  0  0  0  0  0  0  0  0  0
   27.5187   25.8478   -3.8843 O   0  0  0  0  0  0  0  0  0  0  0  0
   29.8035   25.1438   -3.8044 C   0  0  1  0  0  0  0  0  0  0  0  0
   29.6245   25.7775   -2.5697 O   0  0  0  0  0  0  0  0  0  0  0  0
   35.0279   23.2201   -4.3255 C   0  0  0  0  0  0  0  0  0  0  0  0
   35.9097   22.8949   -5.1590 O   0  0  0  0  0  0  0  0  0  0  0  0
   35.4261   23.6065   -3.1078 N   0  0  0  0  0  0  0  0  0  0  0  0
  1  2  1  0
  2  3  2  0
  3  4  1  0
  4  5  2  0
  5  6  1  0
  6  7  2  0
  7  8  1  0
  9  8  1  6
  9 10  1  0
 10 11  1  0
 11 12  1  6
 12 13  1  0
 13 14  1  0
 14 15  2  0
 14 16  1  6
 14 17  1  0
 17 18  1  0
 18 19  2  0
 18 20  1  6
 18 21  1  0
 21 22  1  0
 22 23  1  0
 22 24  1  0
 22 25  2  0
 11 26  1  0
 26 27  1  1
 26 28  1  0
 28 29  1  1
  5 30  1  0
 30 31  2  0
 30 32  1  0
 32  2  1  0
  8  4  1  0
 28  9  1  0
M  END
$$$$
