
     RDKit          3D

 32 34  0  0  0  0  0  0  0  0999 V2000
   34.7702   25.1526   -1.2542 N   0  0  0  0  0  0  0  0  0  0  0  0
   34.3186   24.4673   -2.4085 C   0  0  0  0  0  0  0  0  0  0  0  0
   32.9898   24.4021   -2.6275 N   0  0  0  0  0  0  0  0  0  0  0  0
   32.5282   23.7660   -3.7024 C   0  0  0  0  0  0  0  0  0  0  0  0
   33.4308   23.1843   -4.5730 C   0  0  0  0  0  0  0  0  0  0  0  0
   32.7092   22.6223   -5.5494 N   0  0  0  0  0  0  0  0  0  0  0  0
   31.4065   22.8446   -5.2980 C   0  0  0  0  0  0  0  0  0  0  0  0
   31.2834   23.5501   -4.1596 N   0  0  0  0  0  0  0  0  0  0  0  0
   30.0244   23.9869   -3.5554 C   0  0  2  0  0  0  0  0  0  0  0  0
   29.1244   22.9367   -3.6929 O   0  0  0  0  0  0  0  0  0  0  0  0
   27.8806   23.5514   -3.7146 C   0  0  2  0  0  0  0  0  0  0  0  0
   26.7675   22.6212   -4.0652 C   0  0  0  0  0  0  0  0  0  0  0  0
   27.1639   21.4299   -4.6208 O   0  0  0  0  0  0  0  0  0  0  0  0
   26.8637   21.5302   -6.2913 P   0  0  2  0  0  5  0  0  0  0  0  0
   27.4252   22.8078   -6.8561 O   0  0  0  0  0  0  0  0  0  0  0  0
   25.1856   21.4850   -6.5204 O   0  0  0  0  0  0  0  0  0  0  0  0
   27.5366   20.2473   -7.1326 O   0  0  0  0  0  0  0  0  0  0  0  0
   26.5528   18.8828   -6.8178 P   0  0  2  0  0  5  0  0  0  0  0  0
   27.4228   17.8290   -6.1820 O   0  0  0  0  0  0  0  0  0  0  0  0
   25.9457   18.3819   -8.3149 O   0  0  0  0  0  0  0  0  0  0  0  0
   25.2437   19.3017   -5.8450 O   0  0  0  0  0  0  0  0  0  0  0  0
   23.8576   18.6248   -6.5369 P   0  0  0  0  0  5  0  0  0  0  0  0
   23.3248   19.5547   -7.8582 O   0  0  0  0  0  0  0  0  0  0  0  0
   24.1509   17.0550   -7.1000 O   0  0  0  0  0  0  0  0  0  0  0  0
   22.5572   18.5330   -5.4126 S   0  0  0  0  0  0  0  0  0  0  0  0
   28.0809   24.6649   -4.6890 C   0  0  1  0  0  0  0  0  0  0  0  0
   27.1187   25.6512   -4.4320 O   0  0  0  0  0  0  0  0  0  0  0  0
   29.4560   25.1613   -4.2909 C   0  0  1  0  0  0  0  0  0  0  0  0
   29.2952   26.2039   -3.3715 O   0  0  0  0  0  0  0  0  0  0  0  0
   34.7868   23.2588   -4.3366 C   0  0  0  0  0  0  0  0  0  0  0  0
   35.6433   22.7459   -5.0990 O   0  0  0  0  0  0  0  0  0  0  0  0
   35.2209   23.9047   -3.2480 N   0  0  0  0  0  0  0  0  0  0  0  0
  1  2  1  0
  2  3  2  0
  3  4  1  0
  4  5  2  0
  5  6  1  0
  6  7  2  0
  7  8  1  0
  9  8  1  6
  9 10  1  0
 10 11  1  0
 11 12  1  6
 12 13  1  0
 13 14  1  0
 14 15  2  0
 14 16  1  1
 14 17  1  0
 17 18  1  0
 18 19  2  0
 18 20  1  6
 18 21  1  0
 21 22  1  0
 22 23  1  0
 22 24  1  0
 22 25  2  0
 11 26  1  0
 26 27  1  1
 26 28  1  0
 28 29  1  1
  5 30  1  0
 30 31  2  0
 30 32  1  0
 32  2  1  0
  8  4  1  0
 28  9  1  0
M  END
$$$$
