7SCW_GSP
     RDKit          3D

 32 34  0  0  0  0  0  0  0  0999 V2000
   34.8102   25.7062   -1.6068 N   0  0  0  0  0  0  0  0  0  0  0  0
   34.2964   24.8779   -2.5218 C   0  0  0  0  0  0  0  0  0  0  0  0
   32.9964   24.7962   -2.5073 N   0  0  0  0  0  0  0  0  0  0  0  0
   32.4009   24.0519   -3.5161 C   0  0  0  0  0  0  0  0  0  0  0  0
   33.0933   23.3352   -4.4503 C   0  0  0  0  0  0  0  0  0  0  0  0
   32.2089   22.6935   -5.3250 N   0  0  0  0  0  0  0  0  0  0  0  0
   31.0236   23.1238   -4.9709 C   0  0  0  0  0  0  0  0  0  0  0  0
   31.0751   23.8931   -3.8171 N   0  0  0  0  0  0  0  0  0  0  0  0
   29.9485   24.4143   -3.0313 C   0  0  2  0  0  0  0  0  0  0  0  0
   29.0282   23.3144   -2.8788 O   0  0  0  0  0  0  0  0  0  0  0  0
   27.9160   23.5311   -3.7740 C   0  0  2  0  0  0  0  0  0  0  0  0
   27.6824   22.2643   -4.6343 C   0  0  0  0  0  0  0  0  0  0  0  0
   27.3634   22.5787   -6.0014 O   0  0  0  0  0  0  0  0  0  0  0  0
   26.6272   21.4468   -6.9011 P   0  0  2  0  0  5  0  0  0  0  0  0
   27.5867   21.0531   -7.9383 O   0  0  0  0  0  0  0  0  0  0  0  0
   25.3013   22.0571   -7.5070 O   0  0  0  0  0  0  0  0  0  0  0  0
   26.2259   20.2047   -6.0369 O   0  0  0  0  0  0  0  0  0  0  0  0
   25.5971   19.1677   -7.0586 P   0  0  2  0  0  5  0  0  0  0  0  0
   26.6017   18.1000   -7.1053 O   0  0  0  0  0  0  0  0  0  0  0  0
   25.2246   19.6862   -8.5126 O   0  0  0  0  0  0  0  0  0  0  0  0
   24.4016   18.4795   -6.2631 O   0  0  0  0  0  0  0  0  0  0  0  0
   23.2267   18.2585   -7.2863 P   0  0  0  0  0  5  0  0  0  0  0  0
   22.6927   19.6740   -7.7421 O   0  0  0  0  0  0  0  0  0  0  0  0
   23.7629   17.3180   -8.4374 O   0  0  0  0  0  0  0  0  0  0  0  0
   21.7366   17.3904   -6.4223 S   0  0  0  0  0  0  0  0  0  0  0  0
   28.1803   24.8377   -4.5563 C   0  0  1  0  0  0  0  0  0  0  0  0
   26.9588   25.5608   -4.7068 O   0  0  0  0  0  0  0  0  0  0  0  0
   29.1990   25.5705   -3.6984 C   0  0  1  0  0  0  0  0  0  0  0  0
   28.5849   26.3857   -2.6848 O   0  0  0  0  0  0  0  0  0  0  0  0
   34.5551   23.3766   -4.3134 C   0  0  0  0  0  0  0  0  0  0  0  0
   35.2771   22.6082   -4.9267 O   0  0  0  0  0  0  0  0  0  0  0  0
   35.1168   24.1953   -3.3752 N   0  0  0  0  0  0  0  0  0  0  0  0
  1  2  1  0
  2  3  2  0
  3  4  1  0
  4  5  2  0
  5  6  1  0
  6  7  2  0
  7  8  1  0
  9  8  1  6
  9 10  1  0
 10 11  1  0
 11 12  1  6
 12 13  1  0
 14 13  1  0
 14 15  2  0
 14 16  1  6
 14 17  1  0
 18 17  1  0
 18 19  2  0
 18 20  1  6
 18 21  1  0
 21 22  1  0
 22 23  1  0
 22 24  1  0
 22 25  2  0
 11 26  1  0
 26 27  1  1
 26 28  1  0
 28 29  1  1
  5 30  1  0
 30 31  2  0
 30 32  1  0
 32  2  1  0
  8  4  1  0
 28  9  1  0
M  END
