
     RDKit          3D

 32 34  0  0  0  0  0  0  0  0999 V2000
   34.7370   24.8446   -1.0046 N   0  0  0  0  0  0  0  0  0  0  0  0
   34.2871   24.2880   -2.2268 C   0  0  0  0  0  0  0  0  0  0  0  0
   32.9613   24.2857   -2.4722 N   0  0  0  0  0  0  0  0  0  0  0  0
   32.5014   23.7707   -3.6108 C   0  0  0  0  0  0  0  0  0  0  0  0
   33.4026   23.2475   -4.5191 C   0  0  0  0  0  0  0  0  0  0  0  0
   32.6832   22.8049   -5.5566 N   0  0  0  0  0  0  0  0  0  0  0  0
   31.3832   23.0426   -5.3055 C   0  0  0  0  0  0  0  0  0  0  0  0
   31.2596   23.6388   -4.1064 N   0  0  0  0  0  0  0  0  0  0  0  0
   30.0029   24.0546   -3.4827 C   0  0  2  0  0  0  0  0  0  0  0  0
   29.0926   23.0233   -3.6813 O   0  0  0  0  0  0  0  0  0  0  0  0
   27.8553   23.6512   -3.6727 C   0  0  2  0  0  0  0  0  0  0  0  0
   26.7340   22.7537   -4.0780 C   0  0  0  0  0  0  0  0  0  0  0  0
   27.1123   21.6428   -4.7905 O   0  0  0  0  0  0  0  0  0  0  0  0
   26.4319   21.7855   -6.3421 P   0  0  2  0  0  5  0  0  0  0  0  0
   27.3798   21.2619   -7.3880 O   0  0  0  0  0  0  0  0  0  0  0  0
   26.1132   23.4262   -6.6199 O   0  0  0  0  0  0  0  0  0  0  0  0
   24.9883   20.9465   -6.4788 O   0  0  0  0  0  0  0  0  0  0  0  0
   25.3931   19.3358   -6.8919 P   0  0  2  0  0  5  0  0  0  0  0  0
   26.8273   19.1073   -6.4887 O   0  0  0  0  0  0  0  0  0  0  0  0
   25.1793   19.2086   -8.5649 O   0  0  0  0  0  0  0  0  0  0  0  0
   24.3416   18.2473   -6.1539 O   0  0  0  0  0  0  0  0  0  0  0  0
   22.7830   18.8940   -6.2583 P   0  0  0  0  0  5  0  0  0  0  0  0
   22.6496   20.3065   -5.3195 O   0  0  0  0  0  0  0  0  0  0  0  0
   22.3873   19.2998   -7.8540 O   0  0  0  0  0  0  0  0  0  0  0  0
   21.5890   17.7874   -5.6983 S   0  0  0  0  0  0  0  0  0  0  0  0
   28.0708   24.8149   -4.5831 C   0  0  1  0  0  0  0  0  0  0  0  0
   27.1179   25.7956   -4.2747 O   0  0  0  0  0  0  0  0  0  0  0  0
   29.4494   25.2740   -4.1537 C   0  0  1  0  0  0  0  0  0  0  0  0
   29.2961   26.2656   -3.1782 O   0  0  0  0  0  0  0  0  0  0  0  0
   34.7555   23.2565   -4.2551 C   0  0  0  0  0  0  0  0  0  0  0  0
   35.6107   22.7928   -5.0498 O   0  0  0  0  0  0  0  0  0  0  0  0
   35.1880   23.7808   -3.1024 N   0  0  0  0  0  0  0  0  0  0  0  0
  1  2  1  0
  2  3  2  0
  3  4  1  0
  4  5  2  0
  5  6  1  0
  6  7  2  0
  7  8  1  0
  9  8  1  6
  9 10  1  0
 10 11  1  0
 11 12  1  6
 12 13  1  0
 13 14  1  0
 14 15  2  0
 14 16  1  6
 14 17  1  0
 17 18  1  0
 18 19  2  0
 18 20  1  6
 18 21  1  0
 21 22  1  0
 22 23  1  0
 22 24  1  0
 22 25  2  0
 11 26  1  0
 26 27  1  1
 26 28  1  0
 28 29  1  1
  5 30  1  0
 30 31  2  0
 30 32  1  0
 32  2  1  0
  8  4  1  0
 28  9  1  0
M  END
$$$$
