
     RDKit          3D

 33 37  0  0  0  0  0  0  0  0999 V2000
   -4.5515   -6.1440   15.7680 C   0  0  0  0  0  0  0  0  0  0  0  0
   -4.2108   -5.0204   14.9162 N   0  0  0  0  0  0  0  0  0  0  0  0
   -2.9410   -4.4011   14.9234 C   0  0  0  0  0  0  0  0  0  0  0  0
   -2.0699   -4.8502   15.7040 O   0  0  0  0  0  0  0  0  0  0  0  0
   -2.5967   -3.2717   14.0720 C   0  0  0  0  0  0  0  0  0  0  0  0
   -3.3816   -2.6152   13.1931 N   0  0  0  0  0  0  0  0  0  0  0  0
   -2.7140   -1.6395   12.6020 N   0  0  0  0  0  0  0  0  0  0  0  0
   -3.2509   -0.7296   11.5963 C   0  0  0  0  0  0  0  0  0  0  0  0
   -1.4444   -1.6254   13.0849 C   0  0  0  0  0  0  0  0  0  0  0  0
   -0.3298   -0.8538   12.8461 C   0  0  0  0  0  0  0  0  0  0  0  0
    0.8686   -1.0713   13.5024 C   0  0  0  0  0  0  0  0  0  0  0  0
    0.9730   -2.0841   14.4253 C   0  0  0  0  0  0  0  0  0  0  0  0
    2.1081   -2.4444   15.1494 N   0  0  0  0  0  0  0  0  0  0  0  0
    3.2670   -1.6536   15.2601 C   0  0  0  0  0  0  0  0  0  0  0  0
    4.2547   -1.9348   16.0979 N   0  0  0  0  0  0  0  0  0  0  0  0
    5.3502   -1.1811   16.2028 C   0  0  0  0  0  0  0  0  0  0  0  0
    5.4689   -0.0603   15.4104 C   0  0  0  0  0  0  0  0  0  0  0  0
    4.4601    0.2782   14.5151 C   0  0  0  0  0  0  0  0  0  0  0  0
    4.5845    1.4409   13.6962 N   0  0  0  0  0  0  0  0  0  0  0  0
    3.5958    2.2413   13.2595 C   0  0  0  0  0  0  0  0  0  0  0  0
    4.0735    3.2664   12.4940 C   0  0  0  0  0  0  0  0  0  0  0  0
    3.4458    4.3439   11.8190 N   0  0  0  0  0  0  0  0  0  0  0  0
    2.0547    4.6189   11.9537 C   0  0  2  0  0  0  0  0  0  0  0  0
    1.5427    5.7926   11.1857 C   0  0  0  0  0  0  0  0  0  0  0  0
    0.6500    6.5283   12.1566 C   0  0  0  0  0  0  0  0  0  0  0  0
    0.3591    5.5673   13.2102 N   0  0  0  0  0  0  0  0  0  0  0  0
    1.6178    4.8685   13.3724 C   0  0  0  0  0  0  0  0  0  0  0  0
    5.4733    3.0406   12.4851 C   0  0  0  0  0  0  0  0  0  0  0  0
    6.4742    3.8854   11.7827 C   0  0  0  0  0  0  0  0  0  0  0  0
    5.6890    1.9421   13.2193 N   0  0  0  0  0  0  0  0  0  0  0  0
    3.3982   -0.5276   14.4715 N   0  0  0  0  0  0  0  0  0  0  0  0
   -0.1786   -2.8553   14.6500 C   0  0  0  0  0  0  0  0  0  0  0  0
   -1.3707   -2.6491   14.0067 C   0  0  0  0  0  0  0  0  0  0  0  0
  1  2  1  0
  2  3  1  0
  3  4  2  0
  3  5  1  0
  5  6  2  0
  6  7  1  0
  7  8  1  0
  7  9  1  0
  9 10  2  0
 10 11  1  0
 11 12  2  0
 12 13  1  0
 13 14  1  0
 14 15  2  0
 15 16  1  0
 16 17  2  0
 17 18  1  0
 18 19  1  0
 19 20  1  0
 20 21  2  0
 21 22  1  0
 23 22  1  1
 23 24  1  0
 24 25  1  0
 25 26  1  0
 26 27  1  0
 21 28  1  0
 28 29  1  0
 28 30  2  0
 18 31  2  0
 12 32  1  0
 32 33  2  0
 33  5  1  0
 33  9  1  0
 31 14  1  0
 30 19  1  0
 27 23  1  0
M  END
$$$$
