
     RDKit          3D

 33 37  0  0  0  0  0  0  0  0999 V2000
   -4.5700   -6.3212   15.6998 C   0  0  0  0  0  0  0  0  0  0  0  0
   -4.2692   -5.1218   14.9413 N   0  0  0  0  0  0  0  0  0  0  0  0
   -3.0225   -4.4601   15.0024 C   0  0  0  0  0  0  0  0  0  0  0  0
   -2.1210   -4.9641   15.7117 O   0  0  0  0  0  0  0  0  0  0  0  0
   -2.7352   -3.2267   14.2846 C   0  0  0  0  0  0  0  0  0  0  0  0
   -3.5525   -2.5151   13.4813 N   0  0  0  0  0  0  0  0  0  0  0  0
   -2.9345   -1.4476   13.0064 N   0  0  0  0  0  0  0  0  0  0  0  0
   -3.5166   -0.4581   12.1067 C   0  0  0  0  0  0  0  0  0  0  0  0
   -1.6666   -1.4253   13.4937 C   0  0  0  0  0  0  0  0  0  0  0  0
   -0.5918   -0.5778   13.3480 C   0  0  0  0  0  0  0  0  0  0  0  0
    0.6165   -0.8084   13.9813 C   0  0  0  0  0  0  0  0  0  0  0  0
    0.7717   -1.9120   14.7852 C   0  0  0  0  0  0  0  0  0  0  0  0
    1.9240   -2.2950   15.4695 N   0  0  0  0  0  0  0  0  0  0  0  0
    3.1655   -1.6400   15.3688 C   0  0  0  0  0  0  0  0  0  0  0  0
    4.2401   -2.0234   16.0432 N   0  0  0  0  0  0  0  0  0  0  0  0
    5.4144   -1.3982   15.9480 C   0  0  0  0  0  0  0  0  0  0  0  0
    5.5247   -0.3059   15.1156 C   0  0  0  0  0  0  0  0  0  0  0  0
    4.4263    0.1363   14.3862 C   0  0  0  0  0  0  0  0  0  0  0  0
    4.5424    1.2693   13.5255 N   0  0  0  0  0  0  0  0  0  0  0  0
    3.5690    2.1256   13.1676 C   0  0  0  0  0  0  0  0  0  0  0  0
    4.0321    3.0984   12.3284 C   0  0  0  0  0  0  0  0  0  0  0  0
    3.4109    4.2011   11.6891 N   0  0  0  0  0  0  0  0  0  0  0  0
    2.3449    4.9283   12.2922 C   0  0  2  0  0  0  0  0  0  0  0  0
    1.0979    4.1540   12.5662 C   0  0  0  0  0  0  0  0  0  0  0  0
   -0.0236    5.0558   12.1081 C   0  0  0  0  0  0  0  0  0  0  0  0
    0.5666    6.3830   12.0190 N   0  0  0  0  0  0  0  0  0  0  0  0
    1.8893    6.1183   11.4907 C   0  0  0  0  0  0  0  0  0  0  0  0
    5.4058    2.7771   12.1850 C   0  0  0  0  0  0  0  0  0  0  0  0
    6.3828    3.5356   11.3609 C   0  0  0  0  0  0  0  0  0  0  0  0
    5.6227    1.6829   12.9253 N   0  0  0  0  0  0  0  0  0  0  0  0
    3.2892   -0.5440   14.5379 N   0  0  0  0  0  0  0  0  0  0  0  0
   -0.3401   -2.7592   14.9167 C   0  0  0  0  0  0  0  0  0  0  0  0
   -1.5416   -2.5411   14.2951 C   0  0  0  0  0  0  0  0  0  0  0  0
  1  2  1  0
  2  3  1  0
  3  4  2  0
  3  5  1  0
  5  6  2  0
  6  7  1  0
  7  8  1  0
  7  9  1  0
  9 10  2  0
 10 11  1  0
 11 12  2  0
 12 13  1  0
 13 14  1  0
 14 15  2  0
 15 16  1  0
 16 17  2  0
 17 18  1  0
 18 19  1  0
 19 20  1  0
 20 21  2  0
 21 22  1  0
 23 22  1  6
 23 24  1  0
 24 25  1  0
 25 26  1  0
 26 27  1  0
 21 28  1  0
 28 29  1  0
 28 30  2  0
 18 31  2  0
 12 32  1  0
 32 33  2  0
 33  5  1  0
 33  9  1  0
 31 14  1  0
 30 19  1  0
 27 23  1  0
M  END
$$$$
