
     RDKit          3D

 33 37  0  0  0  0  0  0  0  0999 V2000
   -1.4545    3.6389   11.3721 C   0  0  0  0  0  0  0  0  0  0  0  0
   -1.9117    2.3177   11.7587 N   0  0  0  0  0  0  0  0  0  0  0  0
   -1.0807    1.3655   12.3900 C   0  0  0  0  0  0  0  0  0  0  0  0
    0.0739    1.7191   12.7242 O   0  0  0  0  0  0  0  0  0  0  0  0
   -1.4984   -0.0007   12.6701 C   0  0  0  0  0  0  0  0  0  0  0  0
   -2.5506   -0.6756   12.1631 N   0  0  0  0  0  0  0  0  0  0  0  0
   -2.6072   -1.9004   12.6567 N   0  0  0  0  0  0  0  0  0  0  0  0
   -3.6148   -2.9031   12.3297 C   0  0  0  0  0  0  0  0  0  0  0  0
   -1.5725   -2.0704   13.5203 C   0  0  0  0  0  0  0  0  0  0  0  0
   -1.1353   -3.1101   14.3094 C   0  0  0  0  0  0  0  0  0  0  0  0
   -0.0162   -3.0001   15.1156 C   0  0  0  0  0  0  0  0  0  0  0  0
    0.6963   -1.8256   15.1461 C   0  0  0  0  0  0  0  0  0  0  0  0
    1.8242   -1.5493   15.9170 N   0  0  0  0  0  0  0  0  0  0  0  0
    3.0892   -1.2266   15.3915 C   0  0  0  0  0  0  0  0  0  0  0  0
    4.1783   -1.9379   15.6452 N   0  0  0  0  0  0  0  0  0  0  0  0
    5.3765   -1.6272   15.1482 C   0  0  0  0  0  0  0  0  0  0  0  0
    5.4969   -0.5212   14.3356 C   0  0  0  0  0  0  0  0  0  0  0  0
    4.3840    0.2582   14.0391 C   0  0  0  0  0  0  0  0  0  0  0  0
    4.5113    1.4047   13.1980 N   0  0  0  0  0  0  0  0  0  0  0  0
    3.5400    2.2592   12.8303 C   0  0  0  0  0  0  0  0  0  0  0  0
    4.0149    3.2477   12.0165 C   0  0  0  0  0  0  0  0  0  0  0  0
    3.4002    4.3552   11.3792 N   0  0  0  0  0  0  0  0  0  0  0  0
    2.1597    4.8962   11.8236 C   0  0  2  0  0  0  0  0  0  0  0  0
    1.6135    6.0279   11.0171 C   0  0  0  0  0  0  0  0  0  0  0  0
    1.1510    7.0402   12.0380 C   0  0  0  0  0  0  0  0  0  0  0  0
    1.0492    6.3018   13.2879 N   0  0  0  0  0  0  0  0  0  0  0  0
    2.1921    5.4130   13.2371 C   0  0  0  0  0  0  0  0  0  0  0  0
    5.3939    2.9385   11.9002 C   0  0  0  0  0  0  0  0  0  0  0  0
    6.3838    3.7162   11.1102 C   0  0  0  0  0  0  0  0  0  0  0  0
    5.6020    1.8351   12.6291 N   0  0  0  0  0  0  0  0  0  0  0  0
    3.2232   -0.1206   14.5756 N   0  0  0  0  0  0  0  0  0  0  0  0
    0.2291   -0.7818   14.3315 C   0  0  0  0  0  0  0  0  0  0  0  0
   -0.8772   -0.8790   13.5289 C   0  0  0  0  0  0  0  0  0  0  0  0
  1  2  1  0
  2  3  1  0
  3  4  2  0
  3  5  1  0
  5  6  2  0
  6  7  1  0
  7  8  1  0
  7  9  1  0
  9 10  2  0
 10 11  1  0
 11 12  2  0
 12 13  1  0
 13 14  1  0
 14 15  2  0
 15 16  1  0
 16 17  2  0
 17 18  1  0
 18 19  1  0
 19 20  1  0
 20 21  2  0
 21 22  1  0
 23 22  1  6
 23 24  1  0
 24 25  1  0
 25 26  1  0
 26 27  1  0
 21 28  1  0
 28 29  1  0
 28 30  2  0
 18 31  2  0
 12 32  1  0
 32 33  2  0
 33  5  1  0
 33  9  1  0
 31 14  1  0
 30 19  1  0
 27 23  1  0
M  END
$$$$
