
     RDKit          3D

 33 37  0  0  0  0  0  0  0  0999 V2000
   -1.7912    4.1076   13.3900 C   0  0  0  0  0  0  0  0  0  0  0  0
   -2.1234    2.7004   13.5075 N   0  0  0  0  0  0  0  0  0  0  0  0
   -1.1509    1.6846   13.6420 C   0  0  0  0  0  0  0  0  0  0  0  0
    0.0173    2.0221   13.9437 O   0  0  0  0  0  0  0  0  0  0  0  0
   -1.4385    0.2708   13.4479 C   0  0  0  0  0  0  0  0  0  0  0  0
   -2.4548   -0.2909   12.7614 N   0  0  0  0  0  0  0  0  0  0  0  0
   -2.3840   -1.6099   12.8093 N   0  0  0  0  0  0  0  0  0  0  0  0
   -3.3195   -2.5350   12.1795 C   0  0  0  0  0  0  0  0  0  0  0  0
   -1.2966   -1.9615   13.5437 C   0  0  0  0  0  0  0  0  0  0  0  0
   -0.7350   -3.1596   13.9232 C   0  0  0  0  0  0  0  0  0  0  0  0
    0.4100   -3.2216   14.6973 C   0  0  0  0  0  0  0  0  0  0  0  0
    1.0226   -2.0637   15.1125 C   0  0  0  0  0  0  0  0  0  0  0  0
    2.1608   -1.9572   15.9100 N   0  0  0  0  0  0  0  0  0  0  0  0
    3.4088   -1.4886   15.4590 C   0  0  0  0  0  0  0  0  0  0  0  0
    4.5550   -2.0781   15.7677 N   0  0  0  0  0  0  0  0  0  0  0  0
    5.7365   -1.6292   15.3414 C   0  0  0  0  0  0  0  0  0  0  0  0
    5.7771   -0.5052   14.5459 C   0  0  0  0  0  0  0  0  0  0  0  0
    4.6021    0.1501   14.1937 C   0  0  0  0  0  0  0  0  0  0  0  0
    4.6467    1.3156   13.3705 N   0  0  0  0  0  0  0  0  0  0  0  0
    3.6261    1.8830   12.7031 C   0  0  0  0  0  0  0  0  0  0  0  0
    4.0254    2.9910   12.0119 C   0  0  0  0  0  0  0  0  0  0  0  0
    3.3406    3.9087   11.1755 N   0  0  0  0  0  0  0  0  0  0  0  0
    1.9263    3.8765   11.0087 C   0  0  2  0  0  0  0  0  0  0  0  0
    1.3486    4.9277   10.1195 C   0  0  0  0  0  0  0  0  0  0  0  0
    0.1358    5.4362   10.8620 C   0  0  0  0  0  0  0  0  0  0  0  0
   -0.1578    4.4153   11.8567 N   0  0  0  0  0  0  0  0  0  0  0  0
    1.1581    3.9995   12.2974 C   0  0  0  0  0  0  0  0  0  0  0  0
    5.4100    3.0760   12.3056 C   0  0  0  0  0  0  0  0  0  0  0  0
    6.3332    4.1219   11.7930 C   0  0  0  0  0  0  0  0  0  0  0  0
    5.6940    2.0477   13.1145 N   0  0  0  0  0  0  0  0  0  0  0  0
    3.4632   -0.3629   14.6610 N   0  0  0  0  0  0  0  0  0  0  0  0
    0.4295   -0.8561   14.7110 C   0  0  0  0  0  0  0  0  0  0  0  0
   -0.7037   -0.7822   13.9443 C   0  0  0  0  0  0  0  0  0  0  0  0
  1  2  1  0
  2  3  1  0
  3  4  2  0
  3  5  1  0
  5  6  2  0
  6  7  1  0
  7  8  1  0
  7  9  1  0
  9 10  2  0
 10 11  1  0
 11 12  2  0
 12 13  1  0
 13 14  1  0
 14 15  2  0
 15 16  1  0
 16 17  2  0
 17 18  1  0
 18 19  1  0
 19 20  1  0
 20 21  2  0
 21 22  1  0
 23 22  1  1
 23 24  1  0
 24 25  1  0
 25 26  1  0
 26 27  1  0
 21 28  1  0
 28 29  1  0
 28 30  2  0
 18 31  2  0
 12 32  1  0
 32 33  2  0
 33  5  1  0
 33  9  1  0
 31 14  1  0
 30 19  1  0
 27 23  1  0
M  END
$$$$
