
     RDKit          3D

 33 37  0  0  0  0  0  0  0  0999 V2000
   -4.6524   -6.3640   15.3503 C   0  0  0  0  0  0  0  0  0  0  0  0
   -4.3046   -5.2022   14.5544 N   0  0  0  0  0  0  0  0  0  0  0  0
   -3.0642   -4.5345   14.6612 C   0  0  0  0  0  0  0  0  0  0  0  0
   -2.1647   -5.0672   15.3519 O   0  0  0  0  0  0  0  0  0  0  0  0
   -2.7811   -3.2632   14.0109 C   0  0  0  0  0  0  0  0  0  0  0  0
   -3.5958   -2.5199   13.2341 N   0  0  0  0  0  0  0  0  0  0  0  0
   -2.9834   -1.4234   12.8223 N   0  0  0  0  0  0  0  0  0  0  0  0
   -3.5647   -0.3953   11.9665 C   0  0  0  0  0  0  0  0  0  0  0  0
   -1.7221   -1.4132   13.3266 C   0  0  0  0  0  0  0  0  0  0  0  0
   -0.6546   -0.5487   13.2383 C   0  0  0  0  0  0  0  0  0  0  0  0
    0.5480   -0.7990   13.8749 C   0  0  0  0  0  0  0  0  0  0  0  0
    0.7050   -1.9406   14.6236 C   0  0  0  0  0  0  0  0  0  0  0  0
    1.8526   -2.3463   15.3026 N   0  0  0  0  0  0  0  0  0  0  0  0
    3.0919   -1.6825   15.2405 C   0  0  0  0  0  0  0  0  0  0  0  0
    4.1424   -2.0472   15.9615 N   0  0  0  0  0  0  0  0  0  0  0  0
    5.3147   -1.4135   15.9028 C   0  0  0  0  0  0  0  0  0  0  0  0
    5.4486   -0.3324   15.0594 C   0  0  0  0  0  0  0  0  0  0  0  0
    4.3760    0.0902   14.2817 C   0  0  0  0  0  0  0  0  0  0  0  0
    4.5167    1.2117   13.4097 N   0  0  0  0  0  0  0  0  0  0  0  0
    3.5870    2.1376   13.1144 C   0  0  0  0  0  0  0  0  0  0  0  0
    4.0625    3.0737   12.2411 C   0  0  0  0  0  0  0  0  0  0  0  0
    3.4823    4.2194   11.6400 N   0  0  0  0  0  0  0  0  0  0  0  0
    2.4147    4.9396   12.2488 C   0  0  2  0  0  0  0  0  0  0  0  0
    1.1578    4.1691   12.4860 C   0  0  0  0  0  0  0  0  0  0  0  0
    0.0499    5.0926   12.0381 C   0  0  0  0  0  0  0  0  0  0  0  0
    0.6523    6.4165   11.9922 N   0  0  0  0  0  0  0  0  0  0  0  0
    1.9795    6.1544   11.4738 C   0  0  0  0  0  0  0  0  0  0  0  0
    5.3958    2.6520   12.0066 C   0  0  0  0  0  0  0  0  0  0  0  0
    6.3679    3.3364   11.1147 C   0  0  0  0  0  0  0  0  0  0  0  0
    5.5813    1.5446   12.7358 N   0  0  0  0  0  0  0  0  0  0  0  0
    3.2392   -0.5974   14.3991 N   0  0  0  0  0  0  0  0  0  0  0  0
   -0.3993   -2.8045   14.6973 C   0  0  0  0  0  0  0  0  0  0  0  0
   -1.5951   -2.5671   14.0719 C   0  0  0  0  0  0  0  0  0  0  0  0
  1  2  1  0
  2  3  1  0
  3  4  2  0
  3  5  1  0
  5  6  2  0
  6  7  1  0
  7  8  1  0
  7  9  1  0
  9 10  2  0
 10 11  1  0
 11 12  2  0
 12 13  1  0
 13 14  1  0
 14 15  2  0
 15 16  1  0
 16 17  2  0
 17 18  1  0
 18 19  1  0
 19 20  1  0
 20 21  2  0
 21 22  1  0
 23 22  1  6
 23 24  1  0
 24 25  1  0
 25 26  1  0
 26 27  1  0
 21 28  1  0
 28 29  1  0
 28 30  2  0
 18 31  2  0
 12 32  1  0
 32 33  2  0
 33  5  1  0
 33  9  1  0
 31 14  1  0
 30 19  1  0
 27 23  1  0
M  END
$$$$
