
     RDKit          3D

 33 37  0  0  0  0  0  0  0  0999 V2000
   -4.2887   -6.3649   15.9064 C   0  0  0  0  0  0  0  0  0  0  0  0
   -4.0736   -5.1475   15.1475 N   0  0  0  0  0  0  0  0  0  0  0  0
   -2.8616   -4.4221   15.1759 C   0  0  0  0  0  0  0  0  0  0  0  0
   -1.9481   -4.8286   15.9310 O   0  0  0  0  0  0  0  0  0  0  0  0
   -2.6231   -3.2306   14.3742 C   0  0  0  0  0  0  0  0  0  0  0  0
   -3.4825   -2.5817   13.5619 N   0  0  0  0  0  0  0  0  0  0  0  0
   -2.9015   -1.5361   12.9996 N   0  0  0  0  0  0  0  0  0  0  0  0
   -3.5344   -0.6121   12.0652 C   0  0  0  0  0  0  0  0  0  0  0  0
   -1.6166   -1.4652   13.4348 C   0  0  0  0  0  0  0  0  0  0  0  0
   -0.5629   -0.6123   13.1964 C   0  0  0  0  0  0  0  0  0  0  0  0
    0.6725   -0.7857   13.7948 C   0  0  0  0  0  0  0  0  0  0  0  0
    0.8772   -1.8358   14.6572 C   0  0  0  0  0  0  0  0  0  0  0  0
    2.0610   -2.1591   15.3180 N   0  0  0  0  0  0  0  0  0  0  0  0
    3.2534   -1.4172   15.2257 C   0  0  0  0  0  0  0  0  0  0  0  0
    4.3288   -1.6870   15.9518 N   0  0  0  0  0  0  0  0  0  0  0  0
    5.4561   -0.9795   15.8644 C   0  0  0  0  0  0  0  0  0  0  0  0
    5.5145    0.0790   14.9845 C   0  0  0  0  0  0  0  0  0  0  0  0
    4.4130    0.4031   14.1999 C   0  0  0  0  0  0  0  0  0  0  0  0
    4.4753    1.5013   13.2900 N   0  0  0  0  0  0  0  0  0  0  0  0
    3.4550    2.2671   12.8639 C   0  0  0  0  0  0  0  0  0  0  0  0
    3.8740    3.2321   11.9931 C   0  0  0  0  0  0  0  0  0  0  0  0
    3.1962    4.2563   11.2844 N   0  0  0  0  0  0  0  0  0  0  0  0
    1.8873    4.6901   11.6414 C   0  0  2  0  0  0  0  0  0  0  0  0
    1.3343    5.8250   10.8440 C   0  0  0  0  0  0  0  0  0  0  0  0
    0.7160    6.7487   11.8664 C   0  0  0  0  0  0  0  0  0  0  0  0
    0.5592    5.9394   13.0657 N   0  0  0  0  0  0  0  0  0  0  0  0
    1.7617    5.1315   13.0750 C   0  0  0  0  0  0  0  0  0  0  0  0
    5.2710    3.0059   11.9047 C   0  0  0  0  0  0  0  0  0  0  0  0
    6.2171    3.7956   11.0740 C   0  0  0  0  0  0  0  0  0  0  0  0
    5.5419    1.9652   12.7022 N   0  0  0  0  0  0  0  0  0  0  0  0
    3.3248   -0.3538   14.3476 N   0  0  0  0  0  0  0  0  0  0  0  0
   -0.2141   -2.6899   14.8830 C   0  0  0  0  0  0  0  0  0  0  0  0
   -1.4420   -2.5280   14.2967 C   0  0  0  0  0  0  0  0  0  0  0  0
  1  2  1  0
  2  3  1  0
  3  4  2  0
  3  5  1  0
  5  6  2  0
  6  7  1  0
  7  8  1  0
  7  9  1  0
  9 10  2  0
 10 11  1  0
 11 12  2  0
 12 13  1  0
 13 14  1  0
 14 15  2  0
 15 16  1  0
 16 17  2  0
 17 18  1  0
 18 19  1  0
 19 20  1  0
 20 21  2  0
 21 22  1  0
 23 22  1  6
 23 24  1  0
 24 25  1  0
 25 26  1  0
 26 27  1  0
 21 28  1  0
 28 29  1  0
 28 30  2  0
 18 31  2  0
 12 32  1  0
 32 33  2  0
 33  5  1  0
 33  9  1  0
 31 14  1  0
 30 19  1  0
 27 23  1  0
M  END
$$$$
