
     RDKit          3D

 33 37  0  0  0  0  0  0  0  0999 V2000
   -4.5323   -6.1737   15.9455 C   0  0  0  0  0  0  0  0  0  0  0  0
   -4.2029   -5.0689   15.0651 N   0  0  0  0  0  0  0  0  0  0  0  0
   -2.9409   -4.4340   15.0593 C   0  0  0  0  0  0  0  0  0  0  0  0
   -2.0267   -4.9316   15.7568 O   0  0  0  0  0  0  0  0  0  0  0  0
   -2.6518   -3.2351   14.2858 C   0  0  0  0  0  0  0  0  0  0  0  0
   -3.4786   -2.5394   13.4784 N   0  0  0  0  0  0  0  0  0  0  0  0
   -2.8551   -1.5034   12.9448 N   0  0  0  0  0  0  0  0  0  0  0  0
   -3.4446   -0.5383   12.0236 C   0  0  0  0  0  0  0  0  0  0  0  0
   -1.5735   -1.4870   13.3949 C   0  0  0  0  0  0  0  0  0  0  0  0
   -0.4879   -0.6669   13.1859 C   0  0  0  0  0  0  0  0  0  0  0  0
    0.7338   -0.8963   13.7936 C   0  0  0  0  0  0  0  0  0  0  0  0
    0.8918   -1.9708   14.6355 C   0  0  0  0  0  0  0  0  0  0  0  0
    2.0561   -2.3494   15.3017 N   0  0  0  0  0  0  0  0  0  0  0  0
    3.2584   -1.6183   15.2832 C   0  0  0  0  0  0  0  0  0  0  0  0
    4.3251   -1.9664   15.9885 N   0  0  0  0  0  0  0  0  0  0  0  0
    5.4621   -1.2691   15.9714 C   0  0  0  0  0  0  0  0  0  0  0  0
    5.5402   -0.1370   15.1902 C   0  0  0  0  0  0  0  0  0  0  0  0
    4.4485    0.2708   14.4314 C   0  0  0  0  0  0  0  0  0  0  0  0
    4.5313    1.4450   13.6238 N   0  0  0  0  0  0  0  0  0  0  0  0
    3.5149    2.2161   13.1979 C   0  0  0  0  0  0  0  0  0  0  0  0
    3.9554    3.2642   12.4414 C   0  0  0  0  0  0  0  0  0  0  0  0
    3.2898    4.3267   11.7790 N   0  0  0  0  0  0  0  0  0  0  0  0
    1.9111    4.6125   11.9946 C   0  0  2  0  0  0  0  0  0  0  0  0
    1.3753    5.8163   11.2923 C   0  0  0  0  0  0  0  0  0  0  0  0
    0.5432    6.5297   12.3315 C   0  0  0  0  0  0  0  0  0  0  0  0
    0.2949    5.5380   13.3673 N   0  0  0  0  0  0  0  0  0  0  0  0
    1.5512    4.8204   13.4414 C   0  0  0  0  0  0  0  0  0  0  0  0
    5.3620    3.0857   12.4262 C   0  0  0  0  0  0  0  0  0  0  0  0
    6.3318    3.9705   11.7294 C   0  0  0  0  0  0  0  0  0  0  0  0
    5.6168    1.9877   13.1488 N   0  0  0  0  0  0  0  0  0  0  0  0
    3.3497   -0.4816   14.5043 N   0  0  0  0  0  0  0  0  0  0  0  0
   -0.2312   -2.7904   14.8314 C   0  0  0  0  0  0  0  0  0  0  0  0
   -1.4459   -2.5731   14.2358 C   0  0  0  0  0  0  0  0  0  0  0  0
  1  2  1  0
  2  3  1  0
  3  4  2  0
  3  5  1  0
  5  6  2  0
  6  7  1  0
  7  8  1  0
  7  9  1  0
  9 10  2  0
 10 11  1  0
 11 12  2  0
 12 13  1  0
 13 14  1  0
 14 15  2  0
 15 16  1  0
 16 17  2  0
 17 18  1  0
 18 19  1  0
 19 20  1  0
 20 21  2  0
 21 22  1  0
 23 22  1  1
 23 24  1  0
 24 25  1  0
 25 26  1  0
 26 27  1  0
 21 28  1  0
 28 29  1  0
 28 30  2  0
 18 31  2  0
 12 32  1  0
 32 33  2  0
 33  5  1  0
 33  9  1  0
 31 14  1  0
 30 19  1  0
 27 23  1  0
M  END
$$$$
