
     RDKit          3D

 33 37  0  0  0  0  0  0  0  0999 V2000
   -1.4632    4.0670   12.4179 C   0  0  0  0  0  0  0  0  0  0  0  0
   -1.8907    2.7025   12.6620 N   0  0  0  0  0  0  0  0  0  0  0  0
   -1.0045    1.6708   13.0441 C   0  0  0  0  0  0  0  0  0  0  0  0
    0.1644    1.9861   13.3667 O   0  0  0  0  0  0  0  0  0  0  0  0
   -1.3814    0.2651   13.0811 C   0  0  0  0  0  0  0  0  0  0  0  0
   -2.4125   -0.3425   12.4588 N   0  0  0  0  0  0  0  0  0  0  0  0
   -2.4327   -1.6353   12.7326 N   0  0  0  0  0  0  0  0  0  0  0  0
   -3.4096   -2.5954   12.2311 C   0  0  0  0  0  0  0  0  0  0  0  0
   -1.3941   -1.9219   13.5599 C   0  0  0  0  0  0  0  0  0  0  0  0
   -0.9265   -3.0691   14.1598 C   0  0  0  0  0  0  0  0  0  0  0  0
    0.1881   -3.0676   14.9794 C   0  0  0  0  0  0  0  0  0  0  0  0
    0.8652   -1.8956   15.2170 C   0  0  0  0  0  0  0  0  0  0  0  0
    1.9836   -1.7240   16.0307 N   0  0  0  0  0  0  0  0  0  0  0  0
    3.2518   -1.3256   15.5686 C   0  0  0  0  0  0  0  0  0  0  0  0
    4.3698   -1.9582   15.8949 N   0  0  0  0  0  0  0  0  0  0  0  0
    5.5706   -1.5758   15.4579 C   0  0  0  0  0  0  0  0  0  0  0  0
    5.6626   -0.4771   14.6317 C   0  0  0  0  0  0  0  0  0  0  0  0
    4.5188    0.2212   14.2600 C   0  0  0  0  0  0  0  0  0  0  0  0
    4.6167    1.3602   13.4050 N   0  0  0  0  0  0  0  0  0  0  0  0
    3.6076    2.0372   12.8286 C   0  0  0  0  0  0  0  0  0  0  0  0
    4.0625    3.0781   12.0707 C   0  0  0  0  0  0  0  0  0  0  0  0
    3.4093    4.0595   11.2828 N   0  0  0  0  0  0  0  0  0  0  0  0
    2.0254    4.3602   11.4359 C   0  0  2  0  0  0  0  0  0  0  0  0
    1.4923    5.4489   10.5641 C   0  0  0  0  0  0  0  0  0  0  0  0
    0.6391    6.2931   11.4807 C   0  0  0  0  0  0  0  0  0  0  0  0
    0.3813    5.4541   12.6415 N   0  0  0  0  0  0  0  0  0  0  0  0
    1.6412    4.7654   12.8339 C   0  0  0  0  0  0  0  0  0  0  0  0
    5.4703    2.9989   12.2210 C   0  0  0  0  0  0  0  0  0  0  0  0
    6.4536    3.9173   11.5897 C   0  0  0  0  0  0  0  0  0  0  0  0
    5.7117    1.9559   13.0249 N   0  0  0  0  0  0  0  0  0  0  0  0
    3.3576   -0.2261   14.7399 N   0  0  0  0  0  0  0  0  0  0  0  0
    0.3675   -0.7408   14.5925 C   0  0  0  0  0  0  0  0  0  0  0  0
   -0.7348   -0.7300   13.7786 C   0  0  0  0  0  0  0  0  0  0  0  0
  1  2  1  0
  2  3  1  0
  3  4  2  0
  3  5  1  0
  5  6  2  0
  6  7  1  0
  7  8  1  0
  7  9  1  0
  9 10  2  0
 10 11  1  0
 11 12  2  0
 12 13  1  0
 13 14  1  0
 14 15  2  0
 15 16  1  0
 16 17  2  0
 17 18  1  0
 18 19  1  0
 19 20  1  0
 20 21  2  0
 21 22  1  0
 23 22  1  1
 23 24  1  0
 24 25  1  0
 25 26  1  0
 26 27  1  0
 21 28  1  0
 28 29  1  0
 28 30  2  0
 18 31  2  0
 12 32  1  0
 32 33  2  0
 33  5  1  0
 33  9  1  0
 31 14  1  0
 30 19  1  0
 27 23  1  0
M  END
$$$$
