
     RDKit          3D

 33 37  0  0  0  0  0  0  0  0999 V2000
   -4.5997   -6.3708   15.2240 C   0  0  0  0  0  0  0  0  0  0  0  0
   -4.3000   -5.1157   14.5614 N   0  0  0  0  0  0  0  0  0  0  0  0
   -3.0442   -4.4746   14.6501 C   0  0  0  0  0  0  0  0  0  0  0  0
   -2.1214   -5.0656   15.2575 O   0  0  0  0  0  0  0  0  0  0  0  0
   -2.7711   -3.1664   14.0729 C   0  0  0  0  0  0  0  0  0  0  0  0
   -3.6123   -2.3565   13.3974 N   0  0  0  0  0  0  0  0  0  0  0  0
   -3.0006   -1.2451   13.0266 N   0  0  0  0  0  0  0  0  0  0  0  0
   -3.6072   -0.1498   12.2784 C   0  0  0  0  0  0  0  0  0  0  0  0
   -1.7128   -1.2923   13.4562 C   0  0  0  0  0  0  0  0  0  0  0  0
   -0.6336   -0.4428   13.3653 C   0  0  0  0  0  0  0  0  0  0  0  0
    0.5976   -0.7580   13.9122 C   0  0  0  0  0  0  0  0  0  0  0  0
    0.7720   -1.9514   14.5707 C   0  0  0  0  0  0  0  0  0  0  0  0
    1.9473   -2.4237   15.1525 N   0  0  0  0  0  0  0  0  0  0  0  0
    3.1719   -1.7302   15.1507 C   0  0  0  0  0  0  0  0  0  0  0  0
    4.2054   -2.0898   15.8984 N   0  0  0  0  0  0  0  0  0  0  0  0
    5.3636   -1.4281   15.8969 C   0  0  0  0  0  0  0  0  0  0  0  0
    5.5007   -0.3222   15.0868 C   0  0  0  0  0  0  0  0  0  0  0  0
    4.4456    0.0961   14.2832 C   0  0  0  0  0  0  0  0  0  0  0  0
    4.5894    1.2433   13.4457 N   0  0  0  0  0  0  0  0  0  0  0  0
    3.6080    1.9893   12.9078 C   0  0  0  0  0  0  0  0  0  0  0  0
    4.1047    3.0157   12.1563 C   0  0  0  0  0  0  0  0  0  0  0  0
    3.4912    4.0485   11.4029 N   0  0  0  0  0  0  0  0  0  0  0  0
    2.0780    4.2228   11.3611 C   0  0  2  0  0  0  0  0  0  0  0  0
    1.5861    5.3884   10.5682 C   0  0  0  0  0  0  0  0  0  0  0  0
    0.5241    6.0227   11.4346 C   0  0  0  0  0  0  0  0  0  0  0  0
    0.1697    5.0033   12.4108 N   0  0  0  0  0  0  0  0  0  0  0  0
    1.4441    4.3857   12.7166 C   0  0  0  0  0  0  0  0  0  0  0  0
    5.5086    2.8508   12.2680 C   0  0  0  0  0  0  0  0  0  0  0  0
    6.5285    3.7212   11.6270 C   0  0  0  0  0  0  0  0  0  0  0  0
    5.7079    1.7804   13.0472 N   0  0  0  0  0  0  0  0  0  0  0  0
    3.3221   -0.6201   14.3432 N   0  0  0  0  0  0  0  0  0  0  0  0
   -0.3447   -2.7987   14.6493 C   0  0  0  0  0  0  0  0  0  0  0  0
   -1.5688   -2.4973   14.1122 C   0  0  0  0  0  0  0  0  0  0  0  0
  1  2  1  0
  2  3  1  0
  3  4  2  0
  3  5  1  0
  5  6  2  0
  6  7  1  0
  7  8  1  0
  7  9  1  0
  9 10  2  0
 10 11  1  0
 11 12  2  0
 12 13  1  0
 13 14  1  0
 14 15  2  0
 15 16  1  0
 16 17  2  0
 17 18  1  0
 18 19  1  0
 19 20  1  0
 20 21  2  0
 21 22  1  0
 23 22  1  1
 23 24  1  0
 24 25  1  0
 25 26  1  0
 26 27  1  0
 21 28  1  0
 28 29  1  0
 28 30  2  0
 18 31  2  0
 12 32  1  0
 32 33  2  0
 33  5  1  0
 33  9  1  0
 31 14  1  0
 30 19  1  0
 27 23  1  0
M  END
$$$$
