
     RDKit          3D

 33 37  0  0  0  0  0  0  0  0999 V2000
   -4.4781   -6.4180   15.4280 C   0  0  0  0  0  0  0  0  0  0  0  0
   -4.2048   -5.1874   14.7103 N   0  0  0  0  0  0  0  0  0  0  0  0
   -3.0022   -4.4598   14.8524 C   0  0  0  0  0  0  0  0  0  0  0  0
   -2.1007   -4.9448   15.5748 O   0  0  0  0  0  0  0  0  0  0  0  0
   -2.7601   -3.1795   14.2032 C   0  0  0  0  0  0  0  0  0  0  0  0
   -3.5951   -2.4662   13.4198 N   0  0  0  0  0  0  0  0  0  0  0  0
   -3.0193   -1.3487   13.0117 N   0  0  0  0  0  0  0  0  0  0  0  0
   -3.6308   -0.3425   12.1508 C   0  0  0  0  0  0  0  0  0  0  0  0
   -1.7630   -1.2930   13.5254 C   0  0  0  0  0  0  0  0  0  0  0  0
   -0.7266   -0.3908   13.4443 C   0  0  0  0  0  0  0  0  0  0  0  0
    0.4795   -0.5975   14.0900 C   0  0  0  0  0  0  0  0  0  0  0  0
    0.6717   -1.7323   14.8407 C   0  0  0  0  0  0  0  0  0  0  0  0
    1.8280   -2.0963   15.5285 N   0  0  0  0  0  0  0  0  0  0  0  0
    3.0575   -1.4178   15.4356 C   0  0  0  0  0  0  0  0  0  0  0  0
    4.1279   -1.7656   16.1353 N   0  0  0  0  0  0  0  0  0  0  0  0
    5.2907   -1.1181   16.0474 C   0  0  0  0  0  0  0  0  0  0  0  0
    5.3929   -0.0401   15.1955 C   0  0  0  0  0  0  0  0  0  0  0  0
    4.2984    0.3649   14.4393 C   0  0  0  0  0  0  0  0  0  0  0  0
    4.4061    1.4831   13.5583 N   0  0  0  0  0  0  0  0  0  0  0  0
    3.4359    2.3498   13.2172 C   0  0  0  0  0  0  0  0  0  0  0  0
    3.8885    3.3025   12.3497 C   0  0  0  0  0  0  0  0  0  0  0  0
    3.2656    4.4057   11.7128 N   0  0  0  0  0  0  0  0  0  0  0  0
    2.2130    5.1434   12.3268 C   0  0  2  0  0  0  0  0  0  0  0  0
    0.9922    4.3634   12.6882 C   0  0  0  0  0  0  0  0  0  0  0  0
   -0.1629    5.2256   12.2374 C   0  0  0  0  0  0  0  0  0  0  0  0
    0.3999    6.5563   12.0631 N   0  0  0  0  0  0  0  0  0  0  0  0
    1.7040    6.2879   11.4919 C   0  0  0  0  0  0  0  0  0  0  0  0
    5.2518    2.9568   12.1695 C   0  0  0  0  0  0  0  0  0  0  0  0
    6.2151    3.6870   11.3048 C   0  0  0  0  0  0  0  0  0  0  0  0
    5.4740    1.8702   12.9194 N   0  0  0  0  0  0  0  0  0  0  0  0
    3.1730   -0.3358   14.5853 N   0  0  0  0  0  0  0  0  0  0  0  0
   -0.4014   -2.6353   14.9068 C   0  0  0  0  0  0  0  0  0  0  0  0
   -1.6003   -2.4412   14.2724 C   0  0  0  0  0  0  0  0  0  0  0  0
  1  2  1  0
  2  3  1  0
  3  4  2  0
  3  5  1  0
  5  6  2  0
  6  7  1  0
  7  8  1  0
  7  9  1  0
  9 10  2  0
 10 11  1  0
 11 12  2  0
 12 13  1  0
 13 14  1  0
 14 15  2  0
 15 16  1  0
 16 17  2  0
 17 18  1  0
 18 19  1  0
 19 20  1  0
 20 21  2  0
 21 22  1  0
 23 22  1  6
 23 24  1  0
 24 25  1  0
 25 26  1  0
 26 27  1  0
 21 28  1  0
 28 29  1  0
 28 30  2  0
 18 31  2  0
 12 32  1  0
 32 33  2  0
 33  5  1  0
 33  9  1  0
 31 14  1  0
 30 19  1  0
 27 23  1  0
M  END
$$$$
