
     RDKit          3D

 33 37  0  0  0  0  0  0  0  0999 V2000
   -4.6173   -6.1911   15.7017 C   0  0  0  0  0  0  0  0  0  0  0  0
   -4.2225   -5.1586   14.7623 N   0  0  0  0  0  0  0  0  0  0  0  0
   -2.9468   -4.5518   14.7708 C   0  0  0  0  0  0  0  0  0  0  0  0
   -2.0811   -5.0086   15.5530 O   0  0  0  0  0  0  0  0  0  0  0  0
   -2.5903   -3.4264   13.9190 C   0  0  0  0  0  0  0  0  0  0  0  0
   -3.3487   -2.8022   12.9945 N   0  0  0  0  0  0  0  0  0  0  0  0
   -2.6779   -1.8189   12.4201 N   0  0  0  0  0  0  0  0  0  0  0  0
   -3.1889   -0.9370   11.3766 C   0  0  0  0  0  0  0  0  0  0  0  0
   -1.4330   -1.7663   12.9612 C   0  0  0  0  0  0  0  0  0  0  0  0
   -0.3275   -0.9707   12.7626 C   0  0  0  0  0  0  0  0  0  0  0  0
    0.8437   -1.1490   13.4773 C   0  0  0  0  0  0  0  0  0  0  0  0
    0.9292   -2.1456   14.4195 C   0  0  0  0  0  0  0  0  0  0  0  0
    2.0375   -2.4672   15.2011 N   0  0  0  0  0  0  0  0  0  0  0  0
    3.2370   -1.7315   15.2241 C   0  0  0  0  0  0  0  0  0  0  0  0
    4.2922   -2.0946   15.9389 N   0  0  0  0  0  0  0  0  0  0  0  0
    5.4264   -1.3930   15.9612 C   0  0  0  0  0  0  0  0  0  0  0  0
    5.5139   -0.2399   15.2124 C   0  0  0  0  0  0  0  0  0  0  0  0
    4.4343    0.1843   14.4452 C   0  0  0  0  0  0  0  0  0  0  0  0
    4.5268    1.3803   13.6713 N   0  0  0  0  0  0  0  0  0  0  0  0
    3.5377    2.2454   13.3846 C   0  0  0  0  0  0  0  0  0  0  0  0
    3.9796    3.2856   12.6180 C   0  0  0  0  0  0  0  0  0  0  0  0
    3.3369    4.4231   12.0671 N   0  0  0  0  0  0  0  0  0  0  0  0
    2.3193    5.1344   12.7653 C   0  0  2  0  0  0  0  0  0  0  0  0
    1.1133    4.3421   13.1490 C   0  0  0  0  0  0  0  0  0  0  0  0
   -0.0578    5.2278   12.7957 C   0  0  0  0  0  0  0  0  0  0  0  0
    0.5030    6.5635   12.6564 N   0  0  0  0  0  0  0  0  0  0  0  0
    1.7763    6.3183   12.0105 C   0  0  0  0  0  0  0  0  0  0  0  0
    5.3570    2.9979   12.4425 C   0  0  0  0  0  0  0  0  0  0  0  0
    6.3161    3.8314   11.6718 C   0  0  0  0  0  0  0  0  0  0  0  0
    5.5962    1.8549   13.0973 N   0  0  0  0  0  0  0  0  0  0  0  0
    3.3375   -0.5738   14.4779 N   0  0  0  0  0  0  0  0  0  0  0  0
   -0.2127   -2.9418   14.6023 C   0  0  0  0  0  0  0  0  0  0  0  0
   -1.3780   -2.7745   13.9011 C   0  0  0  0  0  0  0  0  0  0  0  0
  1  2  1  0
  2  3  1  0
  3  4  2  0
  3  5  1  0
  5  6  2  0
  6  7  1  0
  7  8  1  0
  7  9  1  0
  9 10  2  0
 10 11  1  0
 11 12  2  0
 12 13  1  0
 13 14  1  0
 14 15  2  0
 15 16  1  0
 16 17  2  0
 17 18  1  0
 18 19  1  0
 19 20  1  0
 20 21  2  0
 21 22  1  0
 23 22  1  6
 23 24  1  0
 24 25  1  0
 25 26  1  0
 26 27  1  0
 21 28  1  0
 28 29  1  0
 28 30  2  0
 18 31  2  0
 12 32  1  0
 32 33  2  0
 33  5  1  0
 33  9  1  0
 31 14  1  0
 30 19  1  0
 27 23  1  0
M  END
$$$$
