
     RDKit          3D

 33 37  0  0  0  0  0  0  0  0999 V2000
   -1.7359    4.1267   12.8773 C   0  0  0  0  0  0  0  0  0  0  0  0
   -2.0836    2.7343   13.0884 N   0  0  0  0  0  0  0  0  0  0  0  0
   -1.1255    1.7276   13.3422 C   0  0  0  0  0  0  0  0  0  0  0  0
    0.0460    2.0819   13.6101 O   0  0  0  0  0  0  0  0  0  0  0  0
   -1.4315    0.3047   13.3077 C   0  0  0  0  0  0  0  0  0  0  0  0
   -2.4423   -0.3196   12.6690 N   0  0  0  0  0  0  0  0  0  0  0  0
   -2.3935   -1.6247   12.8717 N   0  0  0  0  0  0  0  0  0  0  0  0
   -3.3305   -2.6044   12.3334 C   0  0  0  0  0  0  0  0  0  0  0  0
   -1.3271   -1.9028   13.6659 C   0  0  0  0  0  0  0  0  0  0  0  0
   -0.7925   -3.0557   14.1947 C   0  0  0  0  0  0  0  0  0  0  0  0
    0.3354   -3.0423   14.9959 C   0  0  0  0  0  0  0  0  0  0  0  0
    0.9577   -1.8522   15.2869 C   0  0  0  0  0  0  0  0  0  0  0  0
    2.0809   -1.6685   16.0916 N   0  0  0  0  0  0  0  0  0  0  0  0
    3.3432   -1.2650   15.6179 C   0  0  0  0  0  0  0  0  0  0  0  0
    4.4688   -1.8809   15.9499 N   0  0  0  0  0  0  0  0  0  0  0  0
    5.6640   -1.4936   15.5019 C   0  0  0  0  0  0  0  0  0  0  0  0
    5.7416   -0.4077   14.6575 C   0  0  0  0  0  0  0  0  0  0  0  0
    4.5894    0.2730   14.2792 C   0  0  0  0  0  0  0  0  0  0  0  0
    4.6725    1.3988   13.4055 N   0  0  0  0  0  0  0  0  0  0  0  0
    3.6589    2.0211   12.7775 C   0  0  0  0  0  0  0  0  0  0  0  0
    4.0987    3.0661   12.0162 C   0  0  0  0  0  0  0  0  0  0  0  0
    3.4358    4.0037   11.1843 N   0  0  0  0  0  0  0  0  0  0  0  0
    2.0278    4.2108   11.2433 C   0  0  2  0  0  0  0  0  0  0  0  0
    1.4842    5.2697   10.3417 C   0  0  0  0  0  0  0  0  0  0  0  0
    0.5160    6.0474   11.2013 C   0  0  0  0  0  0  0  0  0  0  0  0
    0.2360    5.1827   12.3379 N   0  0  0  0  0  0  0  0  0  0  0  0
    1.5229    4.5771   12.6133 C   0  0  0  0  0  0  0  0  0  0  0  0
    5.5017    3.0499   12.2214 C   0  0  0  0  0  0  0  0  0  0  0  0
    6.4693    3.9974   11.6091 C   0  0  0  0  0  0  0  0  0  0  0  0
    5.7554    2.0336   13.0550 N   0  0  0  0  0  0  0  0  0  0  0  0
    3.4347   -0.1781   14.7710 N   0  0  0  0  0  0  0  0  0  0  0  0
    0.3922   -0.6919   14.7345 C   0  0  0  0  0  0  0  0  0  0  0  0
   -0.7238   -0.6927   13.9395 C   0  0  0  0  0  0  0  0  0  0  0  0
  1  2  1  0
  2  3  1  0
  3  4  2  0
  3  5  1  0
  5  6  2  0
  6  7  1  0
  7  8  1  0
  7  9  1  0
  9 10  2  0
 10 11  1  0
 11 12  2  0
 12 13  1  0
 13 14  1  0
 14 15  2  0
 15 16  1  0
 16 17  2  0
 17 18  1  0
 18 19  1  0
 19 20  1  0
 20 21  2  0
 21 22  1  0
 23 22  1  1
 23 24  1  0
 24 25  1  0
 25 26  1  0
 26 27  1  0
 21 28  1  0
 28 29  1  0
 28 30  2  0
 18 31  2  0
 12 32  1  0
 32 33  2  0
 33  5  1  0
 33  9  1  0
 31 14  1  0
 30 19  1  0
 27 23  1  0
M  END
$$$$
