
     RDKit          3D

 33 37  0  0  0  0  0  0  0  0999 V2000
   -1.5909    3.9454   12.3774 C   0  0  0  0  0  0  0  0  0  0  0  0
   -1.9777    2.5712   12.6347 N   0  0  0  0  0  0  0  0  0  0  0  0
   -1.0492    1.5490   12.9328 C   0  0  0  0  0  0  0  0  0  0  0  0
    0.1440    1.8753   13.1320 O   0  0  0  0  0  0  0  0  0  0  0  0
   -1.4093    0.1412   13.0195 C   0  0  0  0  0  0  0  0  0  0  0  0
   -2.4428   -0.4968   12.4327 N   0  0  0  0  0  0  0  0  0  0  0  0
   -2.4441   -1.7806   12.7470 N   0  0  0  0  0  0  0  0  0  0  0  0
   -3.4174   -2.7666   12.2909 C   0  0  0  0  0  0  0  0  0  0  0  0
   -1.3897   -2.0297   13.5664 C   0  0  0  0  0  0  0  0  0  0  0  0
   -0.9000   -3.1524   14.1944 C   0  0  0  0  0  0  0  0  0  0  0  0
    0.2270   -3.1130   14.9961 C   0  0  0  0  0  0  0  0  0  0  0  0
    0.8941   -1.9268   15.1864 C   0  0  0  0  0  0  0  0  0  0  0  0
    2.0229   -1.7175   15.9768 N   0  0  0  0  0  0  0  0  0  0  0  0
    3.2896   -1.3601   15.4785 C   0  0  0  0  0  0  0  0  0  0  0  0
    4.3931   -2.0378   15.7607 N   0  0  0  0  0  0  0  0  0  0  0  0
    5.5927   -1.6942   15.2896 C   0  0  0  0  0  0  0  0  0  0  0  0
    5.6991   -0.5889   14.4740 C   0  0  0  0  0  0  0  0  0  0  0  0
    4.5709    0.1559   14.1480 C   0  0  0  0  0  0  0  0  0  0  0  0
    4.6838    1.3017   13.3040 N   0  0  0  0  0  0  0  0  0  0  0  0
    3.6837    1.9967   12.7332 C   0  0  0  0  0  0  0  0  0  0  0  0
    4.1523    3.0390   11.9856 C   0  0  0  0  0  0  0  0  0  0  0  0
    3.5120    4.0359   11.2065 N   0  0  0  0  0  0  0  0  0  0  0  0
    2.1349    4.3613   11.3703 C   0  0  2  0  0  0  0  0  0  0  0  0
    1.6242    5.4854   10.5306 C   0  0  0  0  0  0  0  0  0  0  0  0
    0.7899    6.3210   11.4721 C   0  0  0  0  0  0  0  0  0  0  0  0
    0.5154    5.4549   12.6090 N   0  0  0  0  0  0  0  0  0  0  0  0
    1.7607    4.7345   12.7798 C   0  0  0  0  0  0  0  0  0  0  0  0
    5.5588    2.9408   12.1363 C   0  0  0  0  0  0  0  0  0  0  0  0
    6.5540    3.8528   11.5145 C   0  0  0  0  0  0  0  0  0  0  0  0
    5.7864    1.8873   12.9304 N   0  0  0  0  0  0  0  0  0  0  0  0
    3.4097   -0.2545   14.6600 N   0  0  0  0  0  0  0  0  0  0  0  0
    0.3738   -0.7977   14.5341 C   0  0  0  0  0  0  0  0  0  0  0  0
   -0.7408   -0.8245   13.7375 C   0  0  0  0  0  0  0  0  0  0  0  0
  1  2  1  0
  2  3  1  0
  3  4  2  0
  3  5  1  0
  5  6  2  0
  6  7  1  0
  7  8  1  0
  7  9  1  0
  9 10  2  0
 10 11  1  0
 11 12  2  0
 12 13  1  0
 13 14  1  0
 14 15  2  0
 15 16  1  0
 16 17  2  0
 17 18  1  0
 18 19  1  0
 19 20  1  0
 20 21  2  0
 21 22  1  0
 23 22  1  1
 23 24  1  0
 24 25  1  0
 25 26  1  0
 26 27  1  0
 21 28  1  0
 28 29  1  0
 28 30  2  0
 18 31  2  0
 12 32  1  0
 32 33  2  0
 33  5  1  0
 33  9  1  0
 31 14  1  0
 30 19  1  0
 27 23  1  0
M  END
$$$$
