
     RDKit          3D

 33 37  0  0  0  0  0  0  0  0999 V2000
   -4.6218   -6.2639   15.5878 C   0  0  0  0  0  0  0  0  0  0  0  0
   -4.3011   -5.0768   14.8184 N   0  0  0  0  0  0  0  0  0  0  0  0
   -3.0386   -4.4442   14.8621 C   0  0  0  0  0  0  0  0  0  0  0  0
   -2.1448   -4.9591   15.5733 O   0  0  0  0  0  0  0  0  0  0  0  0
   -2.7267   -3.2286   14.1244 C   0  0  0  0  0  0  0  0  0  0  0  0
   -3.5438   -2.4858   13.3497 N   0  0  0  0  0  0  0  0  0  0  0  0
   -2.8992   -1.4494   12.8425 N   0  0  0  0  0  0  0  0  0  0  0  0
   -3.4733   -0.4399   11.9601 C   0  0  0  0  0  0  0  0  0  0  0  0
   -1.6127   -1.4808   13.2778 C   0  0  0  0  0  0  0  0  0  0  0  0
   -0.5084   -0.6828   13.0826 C   0  0  0  0  0  0  0  0  0  0  0  0
    0.7134   -0.9633   13.6680 C   0  0  0  0  0  0  0  0  0  0  0  0
    0.8525   -2.0684   14.4728 C   0  0  0  0  0  0  0  0  0  0  0  0
    2.0137   -2.4986   15.1126 N   0  0  0  0  0  0  0  0  0  0  0  0
    3.2218   -1.7773   15.1409 C   0  0  0  0  0  0  0  0  0  0  0  0
    4.2354   -2.0988   15.9319 N   0  0  0  0  0  0  0  0  0  0  0  0
    5.3778   -1.4108   15.9588 C   0  0  0  0  0  0  0  0  0  0  0  0
    5.5193   -0.3175   15.1325 C   0  0  0  0  0  0  0  0  0  0  0  0
    4.4849    0.0612   14.2837 C   0  0  0  0  0  0  0  0  0  0  0  0
    4.6332    1.1954   13.4295 N   0  0  0  0  0  0  0  0  0  0  0  0
    3.6627    2.0101   12.9787 C   0  0  0  0  0  0  0  0  0  0  0  0
    4.1607    2.9985   12.1787 C   0  0  0  0  0  0  0  0  0  0  0  0
    3.5563    4.0729   11.4780 N   0  0  0  0  0  0  0  0  0  0  0  0
    2.1635    4.3556   11.5737 C   0  0  2  0  0  0  0  0  0  0  0  0
    1.6674    5.4889   10.7376 C   0  0  0  0  0  0  0  0  0  0  0  0
    0.7589    6.2741   11.6536 C   0  0  0  0  0  0  0  0  0  0  0  0
    0.4477    5.3687   12.7496 N   0  0  0  0  0  0  0  0  0  0  0  0
    1.7020    4.6780   12.9698 C   0  0  0  0  0  0  0  0  0  0  0  0
    5.5536    2.7333   12.1632 C   0  0  0  0  0  0  0  0  0  0  0  0
    6.5703    3.5286   11.4265 C   0  0  0  0  0  0  0  0  0  0  0  0
    5.7462    1.6511   12.9275 N   0  0  0  0  0  0  0  0  0  0  0  0
    3.3763   -0.6794   14.3176 N   0  0  0  0  0  0  0  0  0  0  0  0
   -0.2894   -2.8647   14.6554 C   0  0  0  0  0  0  0  0  0  0  0  0
   -1.5045   -2.5967   14.0815 C   0  0  0  0  0  0  0  0  0  0  0  0
  1  2  1  0
  2  3  1  0
  3  4  2  0
  3  5  1  0
  5  6  2  0
  6  7  1  0
  7  8  1  0
  7  9  1  0
  9 10  2  0
 10 11  1  0
 11 12  2  0
 12 13  1  0
 13 14  1  0
 14 15  2  0
 15 16  1  0
 16 17  2  0
 17 18  1  0
 18 19  1  0
 19 20  1  0
 20 21  2  0
 21 22  1  0
 23 22  1  1
 23 24  1  0
 24 25  1  0
 25 26  1  0
 26 27  1  0
 21 28  1  0
 28 29  1  0
 28 30  2  0
 18 31  2  0
 12 32  1  0
 32 33  2  0
 33  5  1  0
 33  9  1  0
 31 14  1  0
 30 19  1  0
 27 23  1  0
M  END
$$$$
