
     RDKit          3D

 33 37  0  0  0  0  0  0  0  0999 V2000
   -4.4483   -6.2895   15.5769 C   0  0  0  0  0  0  0  0  0  0  0  0
   -4.1832   -5.0431   14.8837 N   0  0  0  0  0  0  0  0  0  0  0  0
   -2.9188   -4.4127   14.8819 C   0  0  0  0  0  0  0  0  0  0  0  0
   -1.9889   -4.9533   15.5244 O   0  0  0  0  0  0  0  0  0  0  0  0
   -2.6448   -3.1711   14.1730 C   0  0  0  0  0  0  0  0  0  0  0  0
   -3.4911   -2.4231   13.4356 N   0  0  0  0  0  0  0  0  0  0  0  0
   -2.8765   -1.3605   12.9456 N   0  0  0  0  0  0  0  0  0  0  0  0
   -3.4872   -0.3381   12.1033 C   0  0  0  0  0  0  0  0  0  0  0  0
   -1.5814   -1.3789   13.3549 C   0  0  0  0  0  0  0  0  0  0  0  0
   -0.4965   -0.5542   13.1611 C   0  0  0  0  0  0  0  0  0  0  0  0
    0.7418   -0.8270   13.7146 C   0  0  0  0  0  0  0  0  0  0  0  0
    0.9178   -1.9512   14.4850 C   0  0  0  0  0  0  0  0  0  0  0  0
    2.0994   -2.3762   15.0899 N   0  0  0  0  0  0  0  0  0  0  0  0
    3.2978   -1.6385   15.1034 C   0  0  0  0  0  0  0  0  0  0  0  0
    4.3570   -1.9963   15.8152 N   0  0  0  0  0  0  0  0  0  0  0  0
    5.4901   -1.2927   15.8285 C   0  0  0  0  0  0  0  0  0  0  0  0
    5.5724   -0.1435   15.0732 C   0  0  0  0  0  0  0  0  0  0  0  0
    4.4886    0.2749   14.3089 C   0  0  0  0  0  0  0  0  0  0  0  0
    4.5755    1.4669   13.5282 N   0  0  0  0  0  0  0  0  0  0  0  0
    3.5585    2.2143   13.0636 C   0  0  0  0  0  0  0  0  0  0  0  0
    4.0039    3.2904   12.3504 C   0  0  0  0  0  0  0  0  0  0  0  0
    3.3399    4.3446   11.6733 N   0  0  0  0  0  0  0  0  0  0  0  0
    1.9257    4.5081   11.7217 C   0  0  2  0  0  0  0  0  0  0  0  0
    1.3790    5.6921   10.9947 C   0  0  0  0  0  0  0  0  0  0  0  0
    0.3671    6.2920   11.9418 C   0  0  0  0  0  0  0  0  0  0  0  0
    0.0792    5.2416   12.9072 N   0  0  0  0  0  0  0  0  0  0  0  0
    1.3738    4.6263   13.1172 C   0  0  0  0  0  0  0  0  0  0  0  0
    5.4144    3.1559   12.4059 C   0  0  0  0  0  0  0  0  0  0  0  0
    6.3902    4.0841   11.7772 C   0  0  0  0  0  0  0  0  0  0  0  0
    5.6663    2.0524   13.1208 N   0  0  0  0  0  0  0  0  0  0  0  0
    3.3931   -0.4847   14.3507 N   0  0  0  0  0  0  0  0  0  0  0  0
   -0.2049   -2.7745   14.6670 C   0  0  0  0  0  0  0  0  0  0  0  0
   -1.4360   -2.5145   14.1245 C   0  0  0  0  0  0  0  0  0  0  0  0
  1  2  1  0
  2  3  1  0
  3  4  2  0
  3  5  1  0
  5  6  2  0
  6  7  1  0
  7  8  1  0
  7  9  1  0
  9 10  2  0
 10 11  1  0
 11 12  2  0
 12 13  1  0
 13 14  1  0
 14 15  2  0
 15 16  1  0
 16 17  2  0
 17 18  1  0
 18 19  1  0
 19 20  1  0
 20 21  2  0
 21 22  1  0
 23 22  1  1
 23 24  1  0
 24 25  1  0
 25 26  1  0
 26 27  1  0
 21 28  1  0
 28 29  1  0
 28 30  2  0
 18 31  2  0
 12 32  1  0
 32 33  2  0
 33  5  1  0
 33  9  1  0
 31 14  1  0
 30 19  1  0
 27 23  1  0
M  END
$$$$
