
     RDKit          3D

 33 37  0  0  0  0  0  0  0  0999 V2000
   -1.4525    4.0394   12.0808 C   0  0  0  0  0  0  0  0  0  0  0  0
   -1.9167    2.7170   12.4547 N   0  0  0  0  0  0  0  0  0  0  0  0
   -1.0508    1.6840   12.8778 C   0  0  0  0  0  0  0  0  0  0  0  0
    0.1466    1.9741   13.1061 O   0  0  0  0  0  0  0  0  0  0  0  0
   -1.4797    0.3050   13.0608 C   0  0  0  0  0  0  0  0  0  0  0  0
   -2.5539   -0.3156   12.5312 N   0  0  0  0  0  0  0  0  0  0  0  0
   -2.6143   -1.5748   12.9282 N   0  0  0  0  0  0  0  0  0  0  0  0
   -3.6438   -2.5368   12.5508 C   0  0  0  0  0  0  0  0  0  0  0  0
   -1.5598   -1.8245   13.7473 C   0  0  0  0  0  0  0  0  0  0  0  0
   -1.1164   -2.9282   14.4400 C   0  0  0  0  0  0  0  0  0  0  0  0
    0.0248   -2.8953   15.2216 C   0  0  0  0  0  0  0  0  0  0  0  0
    0.7539   -1.7351   15.3250 C   0  0  0  0  0  0  0  0  0  0  0  0
    1.9053   -1.5337   16.0843 N   0  0  0  0  0  0  0  0  0  0  0  0
    3.1803   -1.2783   15.5462 C   0  0  0  0  0  0  0  0  0  0  0  0
    4.2446   -2.0145   15.8322 N   0  0  0  0  0  0  0  0  0  0  0  0
    5.4524   -1.7675   15.3231 C   0  0  0  0  0  0  0  0  0  0  0  0
    5.6101   -0.7035   14.4621 C   0  0  0  0  0  0  0  0  0  0  0  0
    4.5244    0.0996   14.1302 C   0  0  0  0  0  0  0  0  0  0  0  0
    4.6905    1.2024   13.2391 N   0  0  0  0  0  0  0  0  0  0  0  0
    3.7272    1.9833   12.7184 C   0  0  0  0  0  0  0  0  0  0  0  0
    4.2427    2.9483   11.9010 C   0  0  0  0  0  0  0  0  0  0  0  0
    3.6514    3.9850   11.1353 N   0  0  0  0  0  0  0  0  0  0  0  0
    2.2778    4.3387   11.2663 C   0  0  2  0  0  0  0  0  0  0  0  0
    1.8015    5.4479   10.3875 C   0  0  0  0  0  0  0  0  0  0  0  0
    0.9664    6.3236   11.2913 C   0  0  0  0  0  0  0  0  0  0  0  0
    0.6575    5.4940   12.4464 N   0  0  0  0  0  0  0  0  0  0  0  0
    1.8866    4.7571   12.6583 C   0  0  0  0  0  0  0  0  0  0  0  0
    5.6387    2.7054   11.9515 C   0  0  0  0  0  0  0  0  0  0  0  0
    6.6726    3.4884   11.2256 C   0  0  0  0  0  0  0  0  0  0  0  0
    5.8161    1.6567   12.7645 N   0  0  0  0  0  0  0  0  0  0  0  0
    3.3517   -0.2149   14.6820 N   0  0  0  0  0  0  0  0  0  0  0  0
    0.2798   -0.6250   14.6081 C   0  0  0  0  0  0  0  0  0  0  0  0
   -0.8483   -0.6456   13.8306 C   0  0  0  0  0  0  0  0  0  0  0  0
  1  2  1  0
  2  3  1  0
  3  4  2  0
  3  5  1  0
  5  6  2  0
  6  7  1  0
  7  8  1  0
  7  9  1  0
  9 10  2  0
 10 11  1  0
 11 12  2  0
 12 13  1  0
 13 14  1  0
 14 15  2  0
 15 16  1  0
 16 17  2  0
 17 18  1  0
 18 19  1  0
 19 20  1  0
 20 21  2  0
 21 22  1  0
 23 22  1  1
 23 24  1  0
 24 25  1  0
 25 26  1  0
 26 27  1  0
 21 28  1  0
 28 29  1  0
 28 30  2  0
 18 31  2  0
 12 32  1  0
 32 33  2  0
 33  5  1  0
 33  9  1  0
 31 14  1  0
 30 19  1  0
 27 23  1  0
M  END
$$$$
