
     RDKit          3D

 33 37  0  0  0  0  0  0  0  0999 V2000
   -4.7519   -6.1369   15.4855 C   0  0  0  0  0  0  0  0  0  0  0  0
   -4.3788   -5.0177   14.6415 N   0  0  0  0  0  0  0  0  0  0  0  0
   -3.1276   -4.3672   14.7276 C   0  0  0  0  0  0  0  0  0  0  0  0
   -2.2663   -4.8446   15.5023 O   0  0  0  0  0  0  0  0  0  0  0  0
   -2.7915   -3.1745   13.9636 C   0  0  0  0  0  0  0  0  0  0  0  0
   -3.5702   -2.4805   13.1082 N   0  0  0  0  0  0  0  0  0  0  0  0
   -2.9139   -1.4506   12.6029 N   0  0  0  0  0  0  0  0  0  0  0  0
   -3.4482   -0.4890   11.6451 C   0  0  0  0  0  0  0  0  0  0  0  0
   -1.6586   -1.4366   13.1219 C   0  0  0  0  0  0  0  0  0  0  0  0
   -0.5595   -0.6225   12.9672 C   0  0  0  0  0  0  0  0  0  0  0  0
    0.6263   -0.8531   13.6417 C   0  0  0  0  0  0  0  0  0  0  0  0
    0.7335   -1.9228   14.4976 C   0  0  0  0  0  0  0  0  0  0  0  0
    1.8581   -2.3020   15.2283 N   0  0  0  0  0  0  0  0  0  0  0  0
    3.0617   -1.5740   15.2737 C   0  0  0  0  0  0  0  0  0  0  0  0
    4.0622   -1.8845   16.0855 N   0  0  0  0  0  0  0  0  0  0  0  0
    5.2003   -1.1901   16.1285 C   0  0  0  0  0  0  0  0  0  0  0  0
    5.3513   -0.1019   15.2972 C   0  0  0  0  0  0  0  0  0  0  0  0
    4.3307    0.2653   14.4268 C   0  0  0  0  0  0  0  0  0  0  0  0
    4.4887    1.3942   13.5675 N   0  0  0  0  0  0  0  0  0  0  0  0
    3.5218    2.1969   13.0884 C   0  0  0  0  0  0  0  0  0  0  0  0
    4.0295    3.1835   12.2922 C   0  0  0  0  0  0  0  0  0  0  0  0
    3.4321    4.2473   11.5696 N   0  0  0  0  0  0  0  0  0  0  0  0
    2.0784    4.6402   11.7747 C   0  0  2  0  0  0  0  0  0  0  0  0
    1.6249    5.8441   11.0167 C   0  0  0  0  0  0  0  0  0  0  0  0
    0.8516    6.6635   12.0224 C   0  0  0  0  0  0  0  0  0  0  0  0
    0.5399    5.7426   13.1054 N   0  0  0  0  0  0  0  0  0  0  0  0
    1.7427    4.9420   13.2107 C   0  0  0  0  0  0  0  0  0  0  0  0
    5.4246    2.9303   12.3104 C   0  0  0  0  0  0  0  0  0  0  0  0
    6.4509    3.7289   11.5908 C   0  0  0  0  0  0  0  0  0  0  0  0
    5.6089    1.8557   13.0873 N   0  0  0  0  0  0  0  0  0  0  0  0
    3.2256   -0.4811   14.4456 N   0  0  0  0  0  0  0  0  0  0  0  0
   -0.4022   -2.7364   14.6372 C   0  0  0  0  0  0  0  0  0  0  0  0
   -1.5818   -2.5179   13.9751 C   0  0  0  0  0  0  0  0  0  0  0  0
  1  2  1  0
  2  3  1  0
  3  4  2  0
  3  5  1  0
  5  6  2  0
  6  7  1  0
  7  8  1  0
  7  9  1  0
  9 10  2  0
 10 11  1  0
 11 12  2  0
 12 13  1  0
 13 14  1  0
 14 15  2  0
 15 16  1  0
 16 17  2  0
 17 18  1  0
 18 19  1  0
 19 20  1  0
 20 21  2  0
 21 22  1  0
 23 22  1  1
 23 24  1  0
 24 25  1  0
 25 26  1  0
 26 27  1  0
 21 28  1  0
 28 29  1  0
 28 30  2  0
 18 31  2  0
 12 32  1  0
 32 33  2  0
 33  5  1  0
 33  9  1  0
 31 14  1  0
 30 19  1  0
 27 23  1  0
M  END
$$$$
