
     RDKit          3D

 33 37  0  0  0  0  0  0  0  0999 V2000
   -4.5547   -6.2369   15.6660 C   0  0  0  0  0  0  0  0  0  0  0  0
   -4.2662   -5.0165   14.9369 N   0  0  0  0  0  0  0  0  0  0  0  0
   -2.9930   -4.4043   14.9263 C   0  0  0  0  0  0  0  0  0  0  0  0
   -2.0670   -4.9571   15.5640 O   0  0  0  0  0  0  0  0  0  0  0  0
   -2.7055   -3.1679   14.2137 C   0  0  0  0  0  0  0  0  0  0  0  0
   -3.5439   -2.4125   13.4747 N   0  0  0  0  0  0  0  0  0  0  0  0
   -2.9178   -1.3583   12.9812 N   0  0  0  0  0  0  0  0  0  0  0  0
   -3.5175   -0.3316   12.1364 C   0  0  0  0  0  0  0  0  0  0  0  0
   -1.6226   -1.3900   13.3898 C   0  0  0  0  0  0  0  0  0  0  0  0
   -0.5287   -0.5780   13.1929 C   0  0  0  0  0  0  0  0  0  0  0  0
    0.7068   -0.8631   13.7465 C   0  0  0  0  0  0  0  0  0  0  0  0
    0.8707   -1.9870   14.5200 C   0  0  0  0  0  0  0  0  0  0  0  0
    2.0479   -2.4235   15.1253 N   0  0  0  0  0  0  0  0  0  0  0  0
    3.2480   -1.6891   15.1559 C   0  0  0  0  0  0  0  0  0  0  0  0
    4.3111   -2.0731   15.8479 N   0  0  0  0  0  0  0  0  0  0  0  0
    5.4459   -1.3727   15.8775 C   0  0  0  0  0  0  0  0  0  0  0  0
    5.5256   -0.1984   15.1614 C   0  0  0  0  0  0  0  0  0  0  0  0
    4.4376    0.2481   14.4192 C   0  0  0  0  0  0  0  0  0  0  0  0
    4.5220    1.4659   13.6792 N   0  0  0  0  0  0  0  0  0  0  0  0
    3.5137    2.2936   13.3520 C   0  0  0  0  0  0  0  0  0  0  0  0
    3.9532    3.3711   12.6372 C   0  0  0  0  0  0  0  0  0  0  0  0
    3.2937    4.4926   12.0734 N   0  0  0  0  0  0  0  0  0  0  0  0
    2.0571    4.9831   12.5827 C   0  0  2  0  0  0  0  0  0  0  0  0
    0.9329    4.0014   12.6272 C   0  0  0  0  0  0  0  0  0  0  0  0
   -0.2603    4.7582   12.0938 C   0  0  0  0  0  0  0  0  0  0  0  0
    0.1069    6.1634   12.1866 N   0  0  0  0  0  0  0  0  0  0  0  0
    1.5088    6.1601   11.8212 C   0  0  0  0  0  0  0  0  0  0  0  0
    5.3502    3.1487   12.5398 C   0  0  0  0  0  0  0  0  0  0  0  0
    6.3151    4.0426   11.8480 C   0  0  0  0  0  0  0  0  0  0  0  0
    5.6013    2.0013   13.1824 N   0  0  0  0  0  0  0  0  0  0  0  0
    3.3408   -0.5104   14.4425 N   0  0  0  0  0  0  0  0  0  0  0  0
   -0.2610   -2.7972   14.7051 C   0  0  0  0  0  0  0  0  0  0  0  0
   -1.4894   -2.5249   14.1625 C   0  0  0  0  0  0  0  0  0  0  0  0
  1  2  1  0
  2  3  1  0
  3  4  2  0
  3  5  1  0
  5  6  2  0
  6  7  1  0
  7  8  1  0
  7  9  1  0
  9 10  2  0
 10 11  1  0
 11 12  2  0
 12 13  1  0
 13 14  1  0
 14 15  2  0
 15 16  1  0
 16 17  2  0
 17 18  1  0
 18 19  1  0
 19 20  1  0
 20 21  2  0
 21 22  1  0
 23 22  1  6
 23 24  1  0
 24 25  1  0
 25 26  1  0
 26 27  1  0
 21 28  1  0
 28 29  1  0
 28 30  2  0
 18 31  2  0
 12 32  1  0
 32 33  2  0
 33  5  1  0
 33  9  1  0
 31 14  1  0
 30 19  1  0
 27 23  1  0
M  END
$$$$
