
     RDKit          3D

 33 37  0  0  0  0  0  0  0  0999 V2000
   -4.5470   -6.3787   15.4287 C   0  0  0  0  0  0  0  0  0  0  0  0
   -4.2465   -5.1604   14.7010 N   0  0  0  0  0  0  0  0  0  0  0  0
   -2.9982   -4.5030   14.7750 C   0  0  0  0  0  0  0  0  0  0  0  0
   -2.1040   -5.0130   15.4891 O   0  0  0  0  0  0  0  0  0  0  0  0
   -2.7013   -3.2672   14.0651 C   0  0  0  0  0  0  0  0  0  0  0  0
   -3.5138   -2.5426   13.2686 N   0  0  0  0  0  0  0  0  0  0  0  0
   -2.8872   -1.4776   12.7997 N   0  0  0  0  0  0  0  0  0  0  0  0
   -3.4623   -0.4766   11.9082 C   0  0  0  0  0  0  0  0  0  0  0  0
   -1.6181   -1.4702   13.2842 C   0  0  0  0  0  0  0  0  0  0  0  0
   -0.5359   -0.6316   13.1420 C   0  0  0  0  0  0  0  0  0  0  0  0
    0.6716   -0.8775   13.7709 C   0  0  0  0  0  0  0  0  0  0  0  0
    0.8186   -1.9880   14.5668 C   0  0  0  0  0  0  0  0  0  0  0  0
    1.9688   -2.3863   15.2458 N   0  0  0  0  0  0  0  0  0  0  0  0
    3.1749   -1.6613   15.2637 C   0  0  0  0  0  0  0  0  0  0  0  0
    4.2013   -1.9878   16.0359 N   0  0  0  0  0  0  0  0  0  0  0  0
    5.3418   -1.2963   16.0530 C   0  0  0  0  0  0  0  0  0  0  0  0
    5.4674   -0.1938   15.2364 C   0  0  0  0  0  0  0  0  0  0  0  0
    4.4191    0.1905   14.4073 C   0  0  0  0  0  0  0  0  0  0  0  0
    4.5509    1.3341   13.5632 N   0  0  0  0  0  0  0  0  0  0  0  0
    3.5687    2.1387   13.1196 C   0  0  0  0  0  0  0  0  0  0  0  0
    4.0524    3.1412   12.3283 C   0  0  0  0  0  0  0  0  0  0  0  0
    3.4325    4.2129   11.6371 N   0  0  0  0  0  0  0  0  0  0  0  0
    2.0473    4.5116   11.7822 C   0  0  2  0  0  0  0  0  0  0  0  0
    1.5486    5.6907   11.0137 C   0  0  0  0  0  0  0  0  0  0  0  0
    0.6763    6.4450   11.9890 C   0  0  0  0  0  0  0  0  0  0  0  0
    0.3783    5.4931   13.0488 N   0  0  0  0  0  0  0  0  0  0  0  0
    1.6264    4.7740   13.2034 C   0  0  0  0  0  0  0  0  0  0  0  0
    5.4489    2.8962   12.3104 C   0  0  0  0  0  0  0  0  0  0  0  0
    6.4539    3.7126   11.5807 C   0  0  0  0  0  0  0  0  0  0  0  0
    5.6572    1.8103   13.0652 N   0  0  0  0  0  0  0  0  0  0  0  0
    3.3135   -0.5542   14.4499 N   0  0  0  0  0  0  0  0  0  0  0  0
   -0.3006   -2.8260   14.6950 C   0  0  0  0  0  0  0  0  0  0  0  0
   -1.5015   -2.5926   14.0776 C   0  0  0  0  0  0  0  0  0  0  0  0
  1  2  1  0
  2  3  1  0
  3  4  2  0
  3  5  1  0
  5  6  2  0
  6  7  1  0
  7  8  1  0
  7  9  1  0
  9 10  2  0
 10 11  1  0
 11 12  2  0
 12 13  1  0
 13 14  1  0
 14 15  2  0
 15 16  1  0
 16 17  2  0
 17 18  1  0
 18 19  1  0
 19 20  1  0
 20 21  2  0
 21 22  1  0
 23 22  1  1
 23 24  1  0
 24 25  1  0
 25 26  1  0
 26 27  1  0
 21 28  1  0
 28 29  1  0
 28 30  2  0
 18 31  2  0
 12 32  1  0
 32 33  2  0
 33  5  1  0
 33  9  1  0
 31 14  1  0
 30 19  1  0
 27 23  1  0
M  END
$$$$
