
     RDKit          3D

 33 37  0  0  0  0  0  0  0  0999 V2000
   -4.5265   -6.3615   15.5191 C   0  0  0  0  0  0  0  0  0  0  0  0
   -4.2351   -5.1387   14.7951 N   0  0  0  0  0  0  0  0  0  0  0  0
   -2.9813   -4.4897   14.8458 C   0  0  0  0  0  0  0  0  0  0  0  0
   -2.0721   -5.0149   15.5295 O   0  0  0  0  0  0  0  0  0  0  0  0
   -2.6951   -3.2459   14.1456 C   0  0  0  0  0  0  0  0  0  0  0  0
   -3.5050   -2.5366   13.3328 N   0  0  0  0  0  0  0  0  0  0  0  0
   -2.8910   -1.4571   12.8805 N   0  0  0  0  0  0  0  0  0  0  0  0
   -3.4674   -0.4661   11.9787 C   0  0  0  0  0  0  0  0  0  0  0  0
   -1.6335   -1.4240   13.3932 C   0  0  0  0  0  0  0  0  0  0  0  0
   -0.5666   -0.5621   13.2772 C   0  0  0  0  0  0  0  0  0  0  0  0
    0.6316   -0.7839   13.9323 C   0  0  0  0  0  0  0  0  0  0  0  0
    0.7846   -1.8933   14.7287 C   0  0  0  0  0  0  0  0  0  0  0  0
    1.9276   -2.2688   15.4324 N   0  0  0  0  0  0  0  0  0  0  0  0
    3.1540   -1.5799   15.3863 C   0  0  0  0  0  0  0  0  0  0  0  0
    4.2401   -1.9977   16.0204 N   0  0  0  0  0  0  0  0  0  0  0  0
    5.4000   -1.3404   15.9775 C   0  0  0  0  0  0  0  0  0  0  0  0
    5.4819   -0.1762   15.2453 C   0  0  0  0  0  0  0  0  0  0  0  0
    4.3704    0.3045   14.5618 C   0  0  0  0  0  0  0  0  0  0  0  0
    4.4572    1.5118   13.8049 N   0  0  0  0  0  0  0  0  0  0  0  0
    3.4514    2.3400   13.4712 C   0  0  0  0  0  0  0  0  0  0  0  0
    3.8928    3.4055   12.7398 C   0  0  0  0  0  0  0  0  0  0  0  0
    3.2362    4.5226   12.1640 N   0  0  0  0  0  0  0  0  0  0  0  0
    2.0701    5.1009   12.7426 C   0  0  2  0  0  0  0  0  0  0  0  0
    0.8986    4.1890   12.9028 C   0  0  0  0  0  0  0  0  0  0  0  0
   -0.2861    4.9974   12.4295 C   0  0  0  0  0  0  0  0  0  0  0  0
    0.1657    6.3808   12.4453 N   0  0  0  0  0  0  0  0  0  0  0  0
    1.5344    6.2834   11.9806 C   0  0  0  0  0  0  0  0  0  0  0  0
    5.2883    3.1749   12.6390 C   0  0  0  0  0  0  0  0  0  0  0  0
    6.2543    4.0546   11.9306 C   0  0  0  0  0  0  0  0  0  0  0  0
    5.5368    2.0351   13.2959 N   0  0  0  0  0  0  0  0  0  0  0  0
    3.2493   -0.4118   14.6559 N   0  0  0  0  0  0  0  0  0  0  0  0
   -0.3191   -2.7553   14.8299 C   0  0  0  0  0  0  0  0  0  0  0  0
   -1.5106   -2.5459   14.1865 C   0  0  0  0  0  0  0  0  0  0  0  0
  1  2  1  0
  2  3  1  0
  3  4  2  0
  3  5  1  0
  5  6  2  0
  6  7  1  0
  7  8  1  0
  7  9  1  0
  9 10  2  0
 10 11  1  0
 11 12  2  0
 12 13  1  0
 13 14  1  0
 14 15  2  0
 15 16  1  0
 16 17  2  0
 17 18  1  0
 18 19  1  0
 19 20  1  0
 20 21  2  0
 21 22  1  0
 23 22  1  6
 23 24  1  0
 24 25  1  0
 25 26  1  0
 26 27  1  0
 21 28  1  0
 28 29  1  0
 28 30  2  0
 18 31  2  0
 12 32  1  0
 32 33  2  0
 33  5  1  0
 33  9  1  0
 31 14  1  0
 30 19  1  0
 27 23  1  0
M  END
$$$$
