
     RDKit          3D

 33 37  0  0  0  0  0  0  0  0999 V2000
   -4.5878   -6.3161   15.2545 C   0  0  0  0  0  0  0  0  0  0  0  0
   -4.2414   -5.1354   14.4863 N   0  0  0  0  0  0  0  0  0  0  0  0
   -2.9987   -4.4736   14.6029 C   0  0  0  0  0  0  0  0  0  0  0  0
   -2.1340   -4.9710   15.3610 O   0  0  0  0  0  0  0  0  0  0  0  0
   -2.6749   -3.2474   13.8882 C   0  0  0  0  0  0  0  0  0  0  0  0
   -3.4508   -2.5429   13.0389 N   0  0  0  0  0  0  0  0  0  0  0  0
   -2.8089   -1.4806   12.5848 N   0  0  0  0  0  0  0  0  0  0  0  0
   -3.3449   -0.4993   11.6481 C   0  0  0  0  0  0  0  0  0  0  0  0
   -1.5665   -1.4546   13.1335 C   0  0  0  0  0  0  0  0  0  0  0  0
   -0.4847   -0.6094   13.0327 C   0  0  0  0  0  0  0  0  0  0  0  0
    0.6907   -0.8348   13.7268 C   0  0  0  0  0  0  0  0  0  0  0  0
    0.8049   -1.9308   14.5479 C   0  0  0  0  0  0  0  0  0  0  0  0
    1.9216   -2.3080   15.2916 N   0  0  0  0  0  0  0  0  0  0  0  0
    3.1064   -1.5547   15.3883 C   0  0  0  0  0  0  0  0  0  0  0  0
    4.1123   -1.8912   16.1828 N   0  0  0  0  0  0  0  0  0  0  0  0
    5.2325   -1.1729   16.2746 C   0  0  0  0  0  0  0  0  0  0  0  0
    5.3582   -0.0305   15.5148 C   0  0  0  0  0  0  0  0  0  0  0  0
    4.3310    0.3658   14.6653 C   0  0  0  0  0  0  0  0  0  0  0  0
    4.4628    1.5507   13.8801 N   0  0  0  0  0  0  0  0  0  0  0  0
    3.4758    2.2742   13.3222 C   0  0  0  0  0  0  0  0  0  0  0  0
    3.9611    3.3505   12.6359 C   0  0  0  0  0  0  0  0  0  0  0  0
    3.3385    4.3849   11.8923 N   0  0  0  0  0  0  0  0  0  0  0  0
    1.9230    4.5346   11.8354 C   0  0  2  0  0  0  0  0  0  0  0  0
    1.4206    5.7164   11.0736 C   0  0  0  0  0  0  0  0  0  0  0  0
    0.3348    6.3026   11.9444 C   0  0  0  0  0  0  0  0  0  0  0  0
   -0.0141    5.2455   12.8819 N   0  0  0  0  0  0  0  0  0  0  0  0
    1.2671    4.6417   13.1861 C   0  0  0  0  0  0  0  0  0  0  0  0
    5.3640    3.2425   12.8117 C   0  0  0  0  0  0  0  0  0  0  0  0
    6.3731    4.1816   12.2560 C   0  0  0  0  0  0  0  0  0  0  0  0
    5.5737    2.1516   13.5588 N   0  0  0  0  0  0  0  0  0  0  0  0
    3.2449   -0.4076   14.6320 N   0  0  0  0  0  0  0  0  0  0  0  0
   -0.3131   -2.7758   14.6327 C   0  0  0  0  0  0  0  0  0  0  0  0
   -1.4824   -2.5627   13.9508 C   0  0  0  0  0  0  0  0  0  0  0  0
  1  2  1  0
  2  3  1  0
  3  4  2  0
  3  5  1  0
  5  6  2  0
  6  7  1  0
  7  8  1  0
  7  9  1  0
  9 10  2  0
 10 11  1  0
 11 12  2  0
 12 13  1  0
 13 14  1  0
 14 15  2  0
 15 16  1  0
 16 17  2  0
 17 18  1  0
 18 19  1  0
 19 20  1  0
 20 21  2  0
 21 22  1  0
 23 22  1  1
 23 24  1  0
 24 25  1  0
 25 26  1  0
 26 27  1  0
 21 28  1  0
 28 29  1  0
 28 30  2  0
 18 31  2  0
 12 32  1  0
 32 33  2  0
 33  5  1  0
 33  9  1  0
 31 14  1  0
 30 19  1  0
 27 23  1  0
M  END
$$$$
