
     RDKit          3D

 33 37  0  0  0  0  0  0  0  0999 V2000
   -4.5813   -6.1874   15.6856 C   0  0  0  0  0  0  0  0  0  0  0  0
   -4.2829   -4.9818   14.9361 N   0  0  0  0  0  0  0  0  0  0  0  0
   -3.0152   -4.3583   14.9464 C   0  0  0  0  0  0  0  0  0  0  0  0
   -2.0800   -4.9326   15.5509 O   0  0  0  0  0  0  0  0  0  0  0  0
   -2.7435   -3.0868   14.2917 C   0  0  0  0  0  0  0  0  0  0  0  0
   -3.5966   -2.2984   13.6060 N   0  0  0  0  0  0  0  0  0  0  0  0
   -2.9820   -1.2186   13.1553 N   0  0  0  0  0  0  0  0  0  0  0  0
   -3.5991   -0.1530   12.3734 C   0  0  0  0  0  0  0  0  0  0  0  0
   -1.6799   -1.2661   13.5394 C   0  0  0  0  0  0  0  0  0  0  0  0
   -0.5917   -0.4414   13.3647 C   0  0  0  0  0  0  0  0  0  0  0  0
    0.6540   -0.7494   13.8819 C   0  0  0  0  0  0  0  0  0  0  0  0
    0.8343   -1.9100   14.5953 C   0  0  0  0  0  0  0  0  0  0  0  0
    2.0230   -2.3720   15.1576 N   0  0  0  0  0  0  0  0  0  0  0  0
    3.2319   -1.6515   15.1693 C   0  0  0  0  0  0  0  0  0  0  0  0
    4.2856   -2.0223   15.8825 N   0  0  0  0  0  0  0  0  0  0  0  0
    5.4287   -1.3352   15.8941 C   0  0  0  0  0  0  0  0  0  0  0  0
    5.5277   -0.1894   15.1354 C   0  0  0  0  0  0  0  0  0  0  0  0
    4.4502    0.2422   14.3695 C   0  0  0  0  0  0  0  0  0  0  0  0
    4.5545    1.4306   13.5853 N   0  0  0  0  0  0  0  0  0  0  0  0
    3.5489    2.1500   13.0560 C   0  0  0  0  0  0  0  0  0  0  0  0
    4.0098    3.2316   12.3611 C   0  0  0  0  0  0  0  0  0  0  0  0
    3.3618    4.2647   11.6377 N   0  0  0  0  0  0  0  0  0  0  0  0
    1.9441    4.3366   11.5193 C   0  0  2  0  0  0  0  0  0  0  0  0
    1.4110    5.4905   10.7359 C   0  0  0  0  0  0  0  0  0  0  0  0
    0.2578    6.0144   11.5585 C   0  0  0  0  0  0  0  0  0  0  0  0
   -0.0728    4.9380   12.4804 N   0  0  0  0  0  0  0  0  0  0  0  0
    1.2253    4.4049   12.8402 C   0  0  0  0  0  0  0  0  0  0  0  0
    5.4174    3.1314   12.4998 C   0  0  0  0  0  0  0  0  0  0  0  0
    6.4060    4.0784   11.9213 C   0  0  0  0  0  0  0  0  0  0  0  0
    5.6530    2.0392   13.2373 N   0  0  0  0  0  0  0  0  0  0  0  0
    3.3439   -0.5015   14.4132 N   0  0  0  0  0  0  0  0  0  0  0  0
   -0.2918   -2.7324   14.7589 C   0  0  0  0  0  0  0  0  0  0  0  0
   -1.5302   -2.4377   14.2519 C   0  0  0  0  0  0  0  0  0  0  0  0
  1  2  1  0
  2  3  1  0
  3  4  2  0
  3  5  1  0
  5  6  2  0
  6  7  1  0
  7  8  1  0
  7  9  1  0
  9 10  2  0
 10 11  1  0
 11 12  2  0
 12 13  1  0
 13 14  1  0
 14 15  2  0
 15 16  1  0
 16 17  2  0
 17 18  1  0
 18 19  1  0
 19 20  1  0
 20 21  2  0
 21 22  1  0
 23 22  1  1
 23 24  1  0
 24 25  1  0
 25 26  1  0
 26 27  1  0
 21 28  1  0
 28 29  1  0
 28 30  2  0
 18 31  2  0
 12 32  1  0
 32 33  2  0
 33  5  1  0
 33  9  1  0
 31 14  1  0
 30 19  1  0
 27 23  1  0
M  END
$$$$
