
     RDKit          3D

 33 37  0  0  0  0  0  0  0  0999 V2000
   -4.3865   -6.3018   15.7042 C   0  0  0  0  0  0  0  0  0  0  0  0
   -4.1072   -5.1196   14.9115 N   0  0  0  0  0  0  0  0  0  0  0  0
   -2.8408   -4.4945   14.8743 C   0  0  0  0  0  0  0  0  0  0  0  0
   -1.8864   -5.0595   15.4571 O   0  0  0  0  0  0  0  0  0  0  0  0
   -2.5915   -3.2314   14.1948 C   0  0  0  0  0  0  0  0  0  0  0  0
   -3.4510   -2.4862   13.4699 N   0  0  0  0  0  0  0  0  0  0  0  0
   -2.8582   -1.3993   13.0071 N   0  0  0  0  0  0  0  0  0  0  0  0
   -3.4878   -0.3723   12.1847 C   0  0  0  0  0  0  0  0  0  0  0  0
   -1.5649   -1.3978   13.4226 C   0  0  0  0  0  0  0  0  0  0  0  0
   -0.4980   -0.5448   13.2530 C   0  0  0  0  0  0  0  0  0  0  0  0
    0.7435   -0.8021   13.8068 C   0  0  0  0  0  0  0  0  0  0  0  0
    0.9412   -1.9391   14.5527 C   0  0  0  0  0  0  0  0  0  0  0  0
    2.1292   -2.3509   15.1541 N   0  0  0  0  0  0  0  0  0  0  0  0
    3.3006   -1.5737   15.2192 C   0  0  0  0  0  0  0  0  0  0  0  0
    4.3217   -1.8729   16.0093 N   0  0  0  0  0  0  0  0  0  0  0  0
    5.4291   -1.1320   16.0711 C   0  0  0  0  0  0  0  0  0  0  0  0
    5.5246   -0.0055   15.2836 C   0  0  0  0  0  0  0  0  0  0  0  0
    4.4805    0.3517   14.4375 C   0  0  0  0  0  0  0  0  0  0  0  0
    4.5810    1.5202   13.6236 N   0  0  0  0  0  0  0  0  0  0  0  0
    3.5723    2.2397   13.1003 C   0  0  0  0  0  0  0  0  0  0  0  0
    4.0300    3.2991   12.3701 C   0  0  0  0  0  0  0  0  0  0  0  0
    3.3781    4.3232   11.6374 N   0  0  0  0  0  0  0  0  0  0  0  0
    1.9602    4.4579   11.6154 C   0  0  2  0  0  0  0  0  0  0  0  0
    1.4256    5.6190   10.8438 C   0  0  0  0  0  0  0  0  0  0  0  0
    0.3573    6.2122   11.7315 C   0  0  0  0  0  0  0  0  0  0  0  0
    0.0442    5.1710   12.6989 N   0  0  0  0  0  0  0  0  0  0  0  0
    1.3393    4.5860   12.9807 C   0  0  0  0  0  0  0  0  0  0  0  0
    5.4391    3.1847   12.4794 C   0  0  0  0  0  0  0  0  0  0  0  0
    6.4255    4.1057   11.8569 C   0  0  0  0  0  0  0  0  0  0  0  0
    5.6785    2.1070   13.2368 N   0  0  0  0  0  0  0  0  0  0  0  0
    3.4088   -0.4422   14.4350 N   0  0  0  0  0  0  0  0  0  0  0  0
   -0.1635   -2.7913   14.7104 C   0  0  0  0  0  0  0  0  0  0  0  0
   -1.3976   -2.5468   14.1674 C   0  0  0  0  0  0  0  0  0  0  0  0
  1  2  1  0
  2  3  1  0
  3  4  2  0
  3  5  1  0
  5  6  2  0
  6  7  1  0
  7  8  1  0
  7  9  1  0
  9 10  2  0
 10 11  1  0
 11 12  2  0
 12 13  1  0
 13 14  1  0
 14 15  2  0
 15 16  1  0
 16 17  2  0
 17 18  1  0
 18 19  1  0
 19 20  1  0
 20 21  2  0
 21 22  1  0
 23 22  1  1
 23 24  1  0
 24 25  1  0
 25 26  1  0
 26 27  1  0
 21 28  1  0
 28 29  1  0
 28 30  2  0
 18 31  2  0
 12 32  1  0
 32 33  2  0
 33  5  1  0
 33  9  1  0
 31 14  1  0
 30 19  1  0
 27 23  1  0
M  END
$$$$
