
     RDKit          3D

 33 37  0  0  0  0  0  0  0  0999 V2000
   -0.3620    3.6844   11.4775 C   0  0  0  0  0  0  0  0  0  0  0  0
   -1.0746    2.5337   11.9993 N   0  0  0  0  0  0  0  0  0  0  0  0
   -0.4273    1.3590   12.4433 C   0  0  0  0  0  0  0  0  0  0  0  0
    0.8228    1.3121   12.3746 O   0  0  0  0  0  0  0  0  0  0  0  0
   -1.1388    0.2053   12.9743 C   0  0  0  0  0  0  0  0  0  0  0  0
   -2.4704    0.0010   13.0430 N   0  0  0  0  0  0  0  0  0  0  0  0
   -2.7399   -1.1708   13.5919 N   0  0  0  0  0  0  0  0  0  0  0  0
   -4.0734   -1.7148   13.8231 C   0  0  0  0  0  0  0  0  0  0  0  0
   -1.5694   -1.7842   13.9065 C   0  0  0  0  0  0  0  0  0  0  0  0
   -1.2359   -2.9886   14.4835 C   0  0  0  0  0  0  0  0  0  0  0  0
    0.0794   -3.3651   14.6898 C   0  0  0  0  0  0  0  0  0  0  0  0
    1.1014   -2.5261   14.3157 C   0  0  0  0  0  0  0  0  0  0  0  0
    2.4682   -2.7471   14.4753 N   0  0  0  0  0  0  0  0  0  0  0  0
    3.3952   -1.7612   14.8617 C   0  0  0  0  0  0  0  0  0  0  0  0
    4.0923   -1.8282   15.9869 N   0  0  0  0  0  0  0  0  0  0  0  0
    4.9675   -0.8902   16.3519 C   0  0  0  0  0  0  0  0  0  0  0  0
    5.1618    0.1987   15.5305 C   0  0  0  0  0  0  0  0  0  0  0  0
    4.4546    0.3159   14.3388 C   0  0  0  0  0  0  0  0  0  0  0  0
    4.6564    1.4458   13.4900 N   0  0  0  0  0  0  0  0  0  0  0  0
    3.7429    2.3596   13.1165 C   0  0  0  0  0  0  0  0  0  0  0  0
    4.2812    3.3093   12.2960 C   0  0  0  0  0  0  0  0  0  0  0  0
    3.7401    4.4504   11.6512 N   0  0  0  0  0  0  0  0  0  0  0  0
    2.7146    5.2431   12.2419 C   0  0  2  0  0  0  0  0  0  0  0  0
    1.4245    4.5437   12.5175 C   0  0  0  0  0  0  0  0  0  0  0  0
    0.3580    5.5031   12.0452 C   0  0  0  0  0  0  0  0  0  0  0  0
    1.0231    6.7937   11.9458 N   0  0  0  0  0  0  0  0  0  0  0  0
    2.3309    6.4488   11.4265 C   0  0  0  0  0  0  0  0  0  0  0  0
    5.6369    2.9098   12.1818 C   0  0  0  0  0  0  0  0  0  0  0  0
    6.6754    3.6157   11.3866 C   0  0  0  0  0  0  0  0  0  0  0  0
    5.7727    1.8000   12.9183 N   0  0  0  0  0  0  0  0  0  0  0  0
    3.5991   -0.6649   14.0473 N   0  0  0  0  0  0  0  0  0  0  0  0
    0.7334   -1.3046   13.7293 C   0  0  0  0  0  0  0  0  0  0  0  0
   -0.5653   -0.9211   13.5194 C   0  0  0  0  0  0  0  0  0  0  0  0
  1  2  1  0
  2  3  1  0
  3  4  2  0
  3  5  1  0
  5  6  2  0
  6  7  1  0
  7  8  1  0
  7  9  1  0
  9 10  2  0
 10 11  1  0
 11 12  2  0
 12 13  1  0
 13 14  1  0
 14 15  2  0
 15 16  1  0
 16 17  2  0
 17 18  1  0
 18 19  1  0
 19 20  1  0
 20 21  2  0
 21 22  1  0
 23 22  1  6
 23 24  1  0
 24 25  1  0
 25 26  1  0
 26 27  1  0
 21 28  1  0
 28 29  1  0
 28 30  2  0
 18 31  2  0
 12 32  1  0
 32 33  2  0
 33  5  1  0
 33  9  1  0
 31 14  1  0
 30 19  1  0
 27 23  1  0
M  END
$$$$
