
     RDKit          3D

 33 37  0  0  0  0  0  0  0  0999 V2000
   -4.5200   -6.2027   15.8503 C   0  0  0  0  0  0  0  0  0  0  0  0
   -4.1888   -5.0881   14.9830 N   0  0  0  0  0  0  0  0  0  0  0  0
   -2.9110   -4.4864   14.9503 C   0  0  0  0  0  0  0  0  0  0  0  0
   -2.0181   -4.9566   15.6929 O   0  0  0  0  0  0  0  0  0  0  0  0
   -2.5824   -3.3516   14.0997 C   0  0  0  0  0  0  0  0  0  0  0  0
   -3.3807   -2.6958   13.2324 N   0  0  0  0  0  0  0  0  0  0  0  0
   -2.7251   -1.7142   12.6379 N   0  0  0  0  0  0  0  0  0  0  0  0
   -3.2782   -0.8031   11.6421 C   0  0  0  0  0  0  0  0  0  0  0  0
   -1.4502   -1.6951   13.1065 C   0  0  0  0  0  0  0  0  0  0  0  0
   -0.3426   -0.9164   12.8583 C   0  0  0  0  0  0  0  0  0  0  0  0
    0.8643   -1.1300   13.5003 C   0  0  0  0  0  0  0  0  0  0  0  0
    0.9846   -2.1460   14.4177 C   0  0  0  0  0  0  0  0  0  0  0  0
    2.1297   -2.5030   15.1275 N   0  0  0  0  0  0  0  0  0  0  0  0
    3.3503   -1.8044   15.0745 C   0  0  0  0  0  0  0  0  0  0  0  0
    4.4287   -2.1849   15.7444 N   0  0  0  0  0  0  0  0  0  0  0  0
    5.5830   -1.5184   15.6947 C   0  0  0  0  0  0  0  0  0  0  0  0
    5.6673   -0.3846   14.9166 C   0  0  0  0  0  0  0  0  0  0  0  0
    4.5638    0.0565   14.1943 C   0  0  0  0  0  0  0  0  0  0  0  0
    4.6531    1.2325   13.3899 N   0  0  0  0  0  0  0  0  0  0  0  0
    3.6899    2.1446   13.1680 C   0  0  0  0  0  0  0  0  0  0  0  0
    4.1194    3.1463   12.3452 C   0  0  0  0  0  0  0  0  0  0  0  0
    3.4928    4.3072   11.8253 N   0  0  0  0  0  0  0  0  0  0  0  0
    2.3901    4.9322   12.4754 C   0  0  2  0  0  0  0  0  0  0  0  0
    1.2034    4.0628   12.7312 C   0  0  0  0  0  0  0  0  0  0  0  0
    0.0157    4.9048   12.3299 C   0  0  0  0  0  0  0  0  0  0  0  0
    0.5128    6.2721   12.2929 N   0  0  0  0  0  0  0  0  0  0  0  0
    1.8414    6.1224   11.7350 C   0  0  0  0  0  0  0  0  0  0  0  0
    5.4602    2.7819   12.0619 C   0  0  0  0  0  0  0  0  0  0  0  0
    6.3933    3.5494   11.1964 C   0  0  0  0  0  0  0  0  0  0  0  0
    5.6937    1.6390   12.7189 N   0  0  0  0  0  0  0  0  0  0  0  0
    3.4479   -0.6665   14.2983 N   0  0  0  0  0  0  0  0  0  0  0  0
   -0.1602   -2.9243   14.6521 C   0  0  0  0  0  0  0  0  0  0  0  0
   -1.3606   -2.7221   14.0231 C   0  0  0  0  0  0  0  0  0  0  0  0
  1  2  1  0
  2  3  1  0
  3  4  2  0
  3  5  1  0
  5  6  2  0
  6  7  1  0
  7  8  1  0
  7  9  1  0
  9 10  2  0
 10 11  1  0
 11 12  2  0
 12 13  1  0
 13 14  1  0
 14 15  2  0
 15 16  1  0
 16 17  2  0
 17 18  1  0
 18 19  1  0
 19 20  1  0
 20 21  2  0
 21 22  1  0
 23 22  1  6
 23 24  1  0
 24 25  1  0
 25 26  1  0
 26 27  1  0
 21 28  1  0
 28 29  1  0
 28 30  2  0
 18 31  2  0
 12 32  1  0
 32 33  2  0
 33  5  1  0
 33  9  1  0
 31 14  1  0
 30 19  1  0
 27 23  1  0
M  END
$$$$
