
     RDKit          3D

 33 37  0  0  0  0  0  0  0  0999 V2000
   -1.3556    3.5597   11.1586 C   0  0  0  0  0  0  0  0  0  0  0  0
   -1.8642    2.3065   11.6831 N   0  0  0  0  0  0  0  0  0  0  0  0
   -1.0641    1.3832   12.3925 C   0  0  0  0  0  0  0  0  0  0  0  0
    0.1083    1.7179   12.6811 O   0  0  0  0  0  0  0  0  0  0  0  0
   -1.5331    0.0676   12.8028 C   0  0  0  0  0  0  0  0  0  0  0  0
   -2.6067   -0.6160   12.3560 N   0  0  0  0  0  0  0  0  0  0  0  0
   -2.7108   -1.7829   12.9680 N   0  0  0  0  0  0  0  0  0  0  0  0
   -3.7528   -2.7762   12.7331 C   0  0  0  0  0  0  0  0  0  0  0  0
   -1.6876   -1.9035   13.8533 C   0  0  0  0  0  0  0  0  0  0  0  0
   -1.2929   -2.8747   14.7453 C   0  0  0  0  0  0  0  0  0  0  0  0
   -0.1748   -2.7256   15.5464 C   0  0  0  0  0  0  0  0  0  0  0  0
    0.5803   -1.5802   15.4667 C   0  0  0  0  0  0  0  0  0  0  0  0
    1.7135   -1.2695   16.2164 N   0  0  0  0  0  0  0  0  0  0  0  0
    2.9884   -1.0287   15.6711 C   0  0  0  0  0  0  0  0  0  0  0  0
    4.0420   -1.7869   15.9384 N   0  0  0  0  0  0  0  0  0  0  0  0
    5.2498   -1.5537   15.4227 C   0  0  0  0  0  0  0  0  0  0  0  0
    5.4189   -0.4810   14.5748 C   0  0  0  0  0  0  0  0  0  0  0  0
    4.3446    0.3451   14.2628 C   0  0  0  0  0  0  0  0  0  0  0  0
    4.5225    1.4570   13.3852 N   0  0  0  0  0  0  0  0  0  0  0  0
    3.6008    2.3675   13.0242 C   0  0  0  0  0  0  0  0  0  0  0  0
    4.1153    3.2981   12.1673 C   0  0  0  0  0  0  0  0  0  0  0  0
    3.5576    4.4287   11.5182 N   0  0  0  0  0  0  0  0  0  0  0  0
    2.3444    5.0346   11.9543 C   0  0  2  0  0  0  0  0  0  0  0  0
    1.8511    6.1776   11.1299 C   0  0  0  0  0  0  0  0  0  0  0  0
    1.4379    7.2268   12.1345 C   0  0  0  0  0  0  0  0  0  0  0  0
    1.3028    6.5142   13.3962 N   0  0  0  0  0  0  0  0  0  0  0  0
    2.4026    5.5719   13.3593 C   0  0  0  0  0  0  0  0  0  0  0  0
    5.4647    2.8899   12.0160 C   0  0  0  0  0  0  0  0  0  0  0  0
    6.4789    3.5748   11.1726 C   0  0  0  0  0  0  0  0  0  0  0  0
    5.6205    1.7943   12.7696 N   0  0  0  0  0  0  0  0  0  0  0  0
    3.1711    0.0432   14.8200 N   0  0  0  0  0  0  0  0  0  0  0  0
    0.1559   -0.6064   14.5486 C   0  0  0  0  0  0  0  0  0  0  0  0
   -0.9491   -0.7429   13.7499 C   0  0  0  0  0  0  0  0  0  0  0  0
  1  2  1  0
  2  3  1  0
  3  4  2  0
  3  5  1  0
  5  6  2  0
  6  7  1  0
  7  8  1  0
  7  9  1  0
  9 10  2  0
 10 11  1  0
 11 12  2  0
 12 13  1  0
 13 14  1  0
 14 15  2  0
 15 16  1  0
 16 17  2  0
 17 18  1  0
 18 19  1  0
 19 20  1  0
 20 21  2  0
 21 22  1  0
 23 22  1  6
 23 24  1  0
 24 25  1  0
 25 26  1  0
 26 27  1  0
 21 28  1  0
 28 29  1  0
 28 30  2  0
 18 31  2  0
 12 32  1  0
 32 33  2  0
 33  5  1  0
 33  9  1  0
 31 14  1  0
 30 19  1  0
 27 23  1  0
M  END
$$$$
