
     RDKit          3D

 33 37  0  0  0  0  0  0  0  0999 V2000
   -0.7256    3.7420   12.2312 C   0  0  0  0  0  0  0  0  0  0  0  0
   -1.3679    2.5146   12.6614 N   0  0  0  0  0  0  0  0  0  0  0  0
   -0.6533    1.3390   12.9826 C   0  0  0  0  0  0  0  0  0  0  0  0
    0.5975    1.3724   12.9180 O   0  0  0  0  0  0  0  0  0  0  0  0
   -1.2964    0.0960   13.3833 C   0  0  0  0  0  0  0  0  0  0  0  0
   -2.6147   -0.1817   13.4496 N   0  0  0  0  0  0  0  0  0  0  0  0
   -2.8152   -1.4226   13.8582 N   0  0  0  0  0  0  0  0  0  0  0  0
   -4.1155   -2.0566   14.0452 C   0  0  0  0  0  0  0  0  0  0  0  0
   -1.6098   -2.0095   14.0769 C   0  0  0  0  0  0  0  0  0  0  0  0
   -1.2059   -3.2558   14.4993 C   0  0  0  0  0  0  0  0  0  0  0  0
    0.1303   -3.5876   14.6364 C   0  0  0  0  0  0  0  0  0  0  0  0
    1.1021   -2.6597   14.3484 C   0  0  0  0  0  0  0  0  0  0  0  0
    2.4813   -2.8293   14.4570 N   0  0  0  0  0  0  0  0  0  0  0  0
    3.3779   -1.8249   14.8667 C   0  0  0  0  0  0  0  0  0  0  0  0
    4.0689   -1.8917   15.9956 N   0  0  0  0  0  0  0  0  0  0  0  0
    4.9152   -0.9362   16.3826 C   0  0  0  0  0  0  0  0  0  0  0  0
    5.0849    0.1714   15.5810 C   0  0  0  0  0  0  0  0  0  0  0  0
    4.3829    0.2892   14.3863 C   0  0  0  0  0  0  0  0  0  0  0  0
    4.5591    1.4385   13.5581 N   0  0  0  0  0  0  0  0  0  0  0  0
    3.6029    2.1487   12.9334 C   0  0  0  0  0  0  0  0  0  0  0  0
    4.1272    3.1898   12.2218 C   0  0  0  0  0  0  0  0  0  0  0  0
    3.5460    4.1988   11.4126 N   0  0  0  0  0  0  0  0  0  0  0  0
    2.1435    4.4474   11.3971 C   0  0  2  0  0  0  0  0  0  0  0  0
    1.6982    5.6321   10.6049 C   0  0  0  0  0  0  0  0  0  0  0  0
    0.6887    6.3277   11.4869 C   0  0  0  0  0  0  0  0  0  0  0  0
    0.3005    5.3351   12.4779 N   0  0  0  0  0  0  0  0  0  0  0  0
    1.5463    4.6530   12.7635 C   0  0  0  0  0  0  0  0  0  0  0  0
    5.5210    3.0740   12.4554 C   0  0  0  0  0  0  0  0  0  0  0  0
    6.5620    3.9777   11.9000 C   0  0  0  0  0  0  0  0  0  0  0  0
    5.6888    2.0132   13.2547 N   0  0  0  0  0  0  0  0  0  0  0  0
    3.5569   -0.7097   14.0722 N   0  0  0  0  0  0  0  0  0  0  0  0
    0.6627   -1.3971   13.9194 C   0  0  0  0  0  0  0  0  0  0  0  0
   -0.6572   -1.0571   13.7793 C   0  0  0  0  0  0  0  0  0  0  0  0
  1  2  1  0
  2  3  1  0
  3  4  2  0
  3  5  1  0
  5  6  2  0
  6  7  1  0
  7  8  1  0
  7  9  1  0
  9 10  2  0
 10 11  1  0
 11 12  2  0
 12 13  1  0
 13 14  1  0
 14 15  2  0
 15 16  1  0
 16 17  2  0
 17 18  1  0
 18 19  1  0
 19 20  1  0
 20 21  2  0
 21 22  1  0
 23 22  1  1
 23 24  1  0
 24 25  1  0
 25 26  1  0
 26 27  1  0
 21 28  1  0
 28 29  1  0
 28 30  2  0
 18 31  2  0
 12 32  1  0
 32 33  2  0
 33  5  1  0
 33  9  1  0
 31 14  1  0
 30 19  1  0
 27 23  1  0
M  END
$$$$
