7TXK_LW8_holo_aligned_esmfold_protein
     RDKit          3D

 15 15  0  0  0  0  0  0  0  0999 V2000
   17.1416   59.4437   63.7938 C   0  0  0  0  0  0  0  0  0  0  0  0
   17.9557   59.7082   64.9197 N   0  0  0  0  0  4  0  0  0  0  0  0
   16.8925   60.6370   65.2662 C   0  0  0  0  0  0  0  0  0  0  0  0
   19.1462   60.0875   64.1113 C   0  0  0  0  0  0  0  0  0  0  0  0
   18.3259   58.9857   66.2281 C   0  0  1  0  0  0  0  0  0  0  0  0
   17.2766   58.1671   66.9996 C   0  0  0  0  0  0  0  0  0  0  0  0
   17.2255   58.4450   68.4828 C   0  0  0  0  0  0  0  0  0  0  0  0
   18.0558   57.8763   69.4183 C   0  0  0  0  0  0  0  0  0  0  0  0
   17.6272   58.2655   70.6763 N   0  0  0  0  0  0  0  0  0  0  0  0
   16.4444   58.9486   70.5388 C   0  0  0  0  0  0  0  0  0  0  0  0
   15.3365   59.2031   71.7460 S   0  0  0  0  0  0  0  0  0  0  0  0
   16.2503   59.1570   69.1871 N   0  0  0  0  0  0  0  0  0  0  0  0
   19.6889   58.2267   66.2970 C   0  0  0  0  0  0  0  0  0  0  0  0
   20.1607   57.8422   65.2469 O   0  0  0  0  0  0  0  0  0  0  0  0
   20.3185   58.0529   67.4841 O   0  0  0  0  0  0  0  0  0  0  0  0
  1  2  1  0
  2  3  1  0
  2  4  1  0
  2  5  1  0
  5  6  1  6
  6  7  1  0
  7  8  2  0
  8  9  1  0
  9 10  1  0
 10 11  2  0
 10 12  1  0
  5 13  1  0
 13 14  2  0
 13 15  1  0
 12  7  1  0
M  CHG  1   2   1
M  END
