
     RDKit          3D

 15 15  0  0  0  0  0  0  0  0999 V2000
   27.0015   51.4572   88.0944 C   0  0  0  0  0  0  0  0  0  0  0  0
   27.8855   52.5921   88.2454 N   0  0  0  0  0  4  0  0  0  0  0  0
   27.0520   53.7824   87.9993 C   0  0  0  0  0  0  0  0  0  0  0  0
   28.7843   52.5246   87.0912 C   0  0  0  0  0  0  0  0  0  0  0  0
   28.5648   52.6339   89.4798 C   0  0  1  0  0  0  0  0  0  0  0  0
   30.0401   52.6065   89.4534 C   0  0  0  0  0  0  0  0  0  0  0  0
   30.7629   51.7786   90.3957 C   0  0  0  0  0  0  0  0  0  0  0  0
   30.9598   50.4460   90.4558 C   0  0  0  0  0  0  0  0  0  0  0  0
   31.6788   50.1400   91.5750 N   0  0  0  0  0  0  0  0  0  0  0  0
   31.9167   51.2859   92.1919 C   0  0  0  0  0  0  0  0  0  0  0  0
   32.7461   51.5033   93.5960 S   0  0  0  0  0  0  0  0  0  0  0  0
   31.3777   52.2835   91.5047 N   0  0  0  0  0  0  0  0  0  0  0  0
   28.1399   53.6609   90.4608 C   0  0  0  0  0  0  0  0  0  0  0  0
   28.3900   54.8643   90.3868 O   0  0  0  0  0  0  0  0  0  0  0  0
   27.3887   53.2462   91.5743 O   0  0  0  0  0  0  0  0  0  0  0  0
  1  2  1  0
  2  3  1  0
  2  4  1  0
  2  5  1  0
  5  6  1  6
  6  7  1  0
  7  8  2  0
  8  9  1  0
  9 10  1  0
 10 11  2  0
 10 12  1  0
  5 13  1  0
 13 14  2  0
 13 15  1  0
 12  7  1  0
M  CHG  1   2   1
M  END
$$$$
