
     RDKit          3D

 15 15  0  0  0  0  0  0  0  0999 V2000
   28.5602   51.1631   88.0895 C   0  0  0  0  0  0  0  0  0  0  0  0
   28.6641   52.4672   88.7069 N   0  0  0  0  0  4  0  0  0  0  0  0
   28.0362   53.4073   87.7614 C   0  0  0  0  0  0  0  0  0  0  0  0
   30.0912   52.7927   88.6597 C   0  0  0  0  0  0  0  0  0  0  0  0
   28.1188   52.5359   90.0049 C   0  0  1  0  0  0  0  0  0  0  0  0
   28.4317   51.4382   90.9405 C   0  0  0  0  0  0  0  0  0  0  0  0
   29.8008   51.2091   91.3512 C   0  0  0  0  0  0  0  0  0  0  0  0
   30.7195   50.3049   90.9552 C   0  0  0  0  0  0  0  0  0  0  0  0
   31.8628   50.4657   91.6832 N   0  0  0  0  0  0  0  0  0  0  0  0
   31.6366   51.4659   92.5192 C   0  0  0  0  0  0  0  0  0  0  0  0
   32.6792   52.0844   93.6314 S   0  0  0  0  0  0  0  0  0  0  0  0
   30.4072   51.9286   92.3398 N   0  0  0  0  0  0  0  0  0  0  0  0
   28.2523   53.8181   90.7368 C   0  0  0  0  0  0  0  0  0  0  0  0
   29.1910   54.6074   90.6269 O   0  0  0  0  0  0  0  0  0  0  0  0
   27.2334   54.1801   91.6350 O   0  0  0  0  0  0  0  0  0  0  0  0
  1  2  1  0
  2  3  1  0
  2  4  1  0
  2  5  1  0
  5  6  1  1
  6  7  1  0
  7  8  2  0
  8  9  1  0
  9 10  1  0
 10 11  2  0
 10 12  1  0
  5 13  1  0
 13 14  2  0
 13 15  1  0
 12  7  1  0
M  CHG  1   2   1
M  END
$$$$
