
     RDKit          3D

 15 15  0  0  0  0  0  0  0  0999 V2000
   17.0411   60.0217   65.1758 C   0  0  0  0  0  0  0  0  0  0  0  0
   18.2641   60.7027   64.8111 N   0  0  0  0  0  4  0  0  0  0  0  0
   17.9883   62.1397   64.9878 C   0  0  0  0  0  0  0  0  0  0  0  0
   18.3765   60.5228   63.3621 C   0  0  0  0  0  0  0  0  0  0  0  0
   19.4017   60.2634   65.5179 C   0  0  1  0  0  0  0  0  0  0  0  0
   19.5090   60.6303   66.9433 C   0  0  0  0  0  0  0  0  0  0  0  0
   19.6383   59.5948   67.9467 C   0  0  0  0  0  0  0  0  0  0  0  0
   20.3347   58.4402   67.9633 C   0  0  0  0  0  0  0  0  0  0  0  0
   20.0917   57.7764   69.1309 N   0  0  0  0  0  0  0  0  0  0  0  0
   19.2490   58.5280   69.8204 C   0  0  0  0  0  0  0  0  0  0  0  0
   18.6199   58.2063   71.3061 S   0  0  0  0  0  0  0  0  0  0  0  0
   18.9617   59.6239   69.1316 N   0  0  0  0  0  0  0  0  0  0  0  0
   19.7868   58.8387   65.3780 C   0  0  0  0  0  0  0  0  0  0  0  0
   19.0416   57.8768   65.5666 O   0  0  0  0  0  0  0  0  0  0  0  0
   21.1076   58.5411   64.9997 O   0  0  0  0  0  0  0  0  0  0  0  0
  1  2  1  0
  2  3  1  0
  2  4  1  0
  2  5  1  0
  5  6  1  1
  6  7  1  0
  7  8  2  0
  8  9  1  0
  9 10  1  0
 10 11  2  0
 10 12  1  0
  5 13  1  0
 13 14  2  0
 13 15  1  0
 12  7  1  0
M  CHG  1   2   1
M  END
$$$$
