
     RDKit          3D

 15 15  0  0  0  0  0  0  0  0999 V2000
   17.6658   61.5402   65.8616 C   0  0  0  0  0  0  0  0  0  0  0  0
   18.4283   60.7338   64.9339 N   0  0  0  0  0  4  0  0  0  0  0  0
   18.6419   61.5836   63.7489 C   0  0  0  0  0  0  0  0  0  0  0  0
   17.4969   59.6975   64.4832 C   0  0  0  0  0  0  0  0  0  0  0  0
   19.6244   60.2144   65.4692 C   0  0  1  0  0  0  0  0  0  0  0  0
   19.8643   60.3920   66.9145 C   0  0  0  0  0  0  0  0  0  0  0  0
   19.3119   59.4440   67.8589 C   0  0  0  0  0  0  0  0  0  0  0  0
   18.6345   58.2912   67.6844 C   0  0  0  0  0  0  0  0  0  0  0  0
   18.2819   57.7795   68.8997 N   0  0  0  0  0  0  0  0  0  0  0  0
   18.7450   58.6217   69.8090 C   0  0  0  0  0  0  0  0  0  0  0  0
   18.6033   58.4940   71.4430 S   0  0  0  0  0  0  0  0  0  0  0  0
   19.3665   59.6282   69.2101 N   0  0  0  0  0  0  0  0  0  0  0  0
   19.9888   58.8235   65.1085 C   0  0  0  0  0  0  0  0  0  0  0  0
   21.1346   58.3741   65.0684 O   0  0  0  0  0  0  0  0  0  0  0  0
   18.9550   57.9286   64.7822 O   0  0  0  0  0  0  0  0  0  0  0  0
  1  2  1  0
  2  3  1  0
  2  4  1  0
  2  5  1  0
  5  6  1  1
  6  7  1  0
  7  8  2  0
  8  9  1  0
  9 10  1  0
 10 11  2  0
 10 12  1  0
  5 13  1  0
 13 14  2  0
 13 15  1  0
 12  7  1  0
M  CHG  1   2   1
M  END
$$$$
