
     RDKit          3D

 15 15  0  0  0  0  0  0  0  0999 V2000
   31.4318   51.7310   92.6626 C   0  0  0  0  0  0  0  0  0  0  0  0
   30.8519   51.1881   91.4536 N   0  0  0  0  0  4  0  0  0  0  0  0
   30.1447   49.9625   91.8659 C   0  0  0  0  0  0  0  0  0  0  0  0
   31.9938   50.7109   90.6706 C   0  0  0  0  0  0  0  0  0  0  0  0
   30.0323   52.0936   90.7500 C   0  0  1  0  0  0  0  0  0  0  0  0
   29.3252   51.5942   89.5547 C   0  0  0  0  0  0  0  0  0  0  0  0
   28.7744   52.5314   88.5987 C   0  0  0  0  0  0  0  0  0  0  0  0
   29.1187   52.8284   87.3293 C   0  0  0  0  0  0  0  0  0  0  0  0
   28.3161   53.8275   86.8595 N   0  0  0  0  0  0  0  0  0  0  0  0
   27.4869   54.1353   87.8434 C   0  0  0  0  0  0  0  0  0  0  0  0
   26.3032   55.2776   87.8226 S   0  0  0  0  0  0  0  0  0  0  0  0
   27.7416   53.3721   88.8973 N   0  0  0  0  0  0  0  0  0  0  0  0
   29.0819   52.9127   91.5396 C   0  0  0  0  0  0  0  0  0  0  0  0
   28.0396   52.5016   92.0503 O   0  0  0  0  0  0  0  0  0  0  0  0
   29.3775   54.2735   91.7320 O   0  0  0  0  0  0  0  0  0  0  0  0
  1  2  1  0
  2  3  1  0
  2  4  1  0
  2  5  1  0
  5  6  1  6
  6  7  1  0
  7  8  2  0
  8  9  1  0
  9 10  1  0
 10 11  2  0
 10 12  1  0
  5 13  1  0
 13 14  2  0
 13 15  1  0
 12  7  1  0
M  CHG  1   2   1
M  END
$$$$
