
     RDKit          3D

 15 15  0  0  0  0  0  0  0  0999 V2000
   27.5434   54.0030   87.8895 C   0  0  0  0  0  0  0  0  0  0  0  0
   27.9400   52.6656   88.2724 N   0  0  0  0  0  4  0  0  0  0  0  0
   28.7157   52.1387   87.1355 C   0  0  0  0  0  0  0  0  0  0  0  0
   26.6985   51.8890   88.2651 C   0  0  0  0  0  0  0  0  0  0  0  0
   28.6331   52.5983   89.4980 C   0  0  1  0  0  0  0  0  0  0  0  0
   30.1081   52.6224   89.4553 C   0  0  0  0  0  0  0  0  0  0  0  0
   30.8699   51.8454   90.4100 C   0  0  0  0  0  0  0  0  0  0  0  0
   31.1844   50.5349   90.4565 C   0  0  0  0  0  0  0  0  0  0  0  0
   31.8891   50.2739   91.5959 N   0  0  0  0  0  0  0  0  0  0  0  0
   32.0009   51.4248   92.2388 C   0  0  0  0  0  0  0  0  0  0  0  0
   32.7583   51.6895   93.6750 S   0  0  0  0  0  0  0  0  0  0  0  0
   31.3978   52.3826   91.5481 N   0  0  0  0  0  0  0  0  0  0  0  0
   28.1882   53.5006   90.5868 C   0  0  0  0  0  0  0  0  0  0  0  0
   27.3431   53.2266   91.4394 O   0  0  0  0  0  0  0  0  0  0  0  0
   28.7672   54.7789   90.6691 O   0  0  0  0  0  0  0  0  0  0  0  0
  1  2  1  0
  2  3  1  0
  2  4  1  0
  2  5  1  0
  5  6  1  6
  6  7  1  0
  7  8  2  0
  8  9  1  0
  9 10  1  0
 10 11  2  0
 10 12  1  0
  5 13  1  0
 13 14  2  0
 13 15  1  0
 12  7  1  0
M  CHG  1   2   1
M  END
$$$$
