
     RDKit          3D

 15 15  0  0  0  0  0  0  0  0999 V2000
   18.6460   61.2497   63.4373 C   0  0  0  0  0  0  0  0  0  0  0  0
   18.3254   60.7470   64.7553 N   0  0  0  0  0  4  0  0  0  0  0  0
   17.2778   59.7308   64.5505 C   0  0  0  0  0  0  0  0  0  0  0  0
   17.6403   61.8554   65.4237 C   0  0  0  0  0  0  0  0  0  0  0  0
   19.4371   60.2634   65.4743 C   0  0  1  0  0  0  0  0  0  0  0  0
   19.5496   60.6361   66.8979 C   0  0  0  0  0  0  0  0  0  0  0  0
   19.6412   59.6037   67.9085 C   0  0  0  0  0  0  0  0  0  0  0  0
   20.2704   58.4111   67.9217 C   0  0  0  0  0  0  0  0  0  0  0  0
   20.0154   57.7726   69.1008 N   0  0  0  0  0  0  0  0  0  0  0  0
   19.2325   58.5774   69.8006 C   0  0  0  0  0  0  0  0  0  0  0  0
   18.6188   58.3054   71.3025 S   0  0  0  0  0  0  0  0  0  0  0  0
   18.9936   59.6820   69.1073 N   0  0  0  0  0  0  0  0  0  0  0  0
   19.7600   58.8221   65.3479 C   0  0  0  0  0  0  0  0  0  0  0  0
   18.9676   57.8959   65.5222 O   0  0  0  0  0  0  0  0  0  0  0  0
   21.0742   58.4631   65.0012 O   0  0  0  0  0  0  0  0  0  0  0  0
  1  2  1  0
  2  3  1  0
  2  4  1  0
  2  5  1  0
  5  6  1  1
  6  7  1  0
  7  8  2  0
  8  9  1  0
  9 10  1  0
 10 11  2  0
 10 12  1  0
  5 13  1  0
 13 14  2  0
 13 15  1  0
 12  7  1  0
M  CHG  1   2   1
M  END
$$$$
