
     RDKit          3D

 15 15  0  0  0  0  0  0  0  0999 V2000
   29.2944   52.9357   87.5890 C   0  0  0  0  0  0  0  0  0  0  0  0
   28.8391   52.0938   88.6737 N   0  0  0  0  0  4  0  0  0  0  0  0
   29.9011   51.0916   88.8735 C   0  0  0  0  0  0  0  0  0  0  0  0
   27.7161   51.3371   88.1162 C   0  0  0  0  0  0  0  0  0  0  0  0
   28.5090   52.7969   89.8500 C   0  0  1  0  0  0  0  0  0  0  0  0
   29.6103   53.1723   90.7579 C   0  0  0  0  0  0  0  0  0  0  0  0
   30.3530   52.1434   91.4546 C   0  0  0  0  0  0  0  0  0  0  0  0
   30.1828   50.8080   91.5329 C   0  0  0  0  0  0  0  0  0  0  0  0
   31.1264   50.2747   92.3625 N   0  0  0  0  0  0  0  0  0  0  0  0
   31.8669   51.2859   92.7862 C   0  0  0  0  0  0  0  0  0  0  0  0
   33.1513   51.2138   93.8116 S   0  0  0  0  0  0  0  0  0  0  0  0
   31.4232   52.4173   92.2560 N   0  0  0  0  0  0  0  0  0  0  0  0
   27.6012   53.9616   89.7196 C   0  0  0  0  0  0  0  0  0  0  0  0
   27.8493   54.9924   89.0934 O   0  0  0  0  0  0  0  0  0  0  0  0
   26.3493   53.9034   90.3564 O   0  0  0  0  0  0  0  0  0  0  0  0
  1  2  1  0
  2  3  1  0
  2  4  1  0
  2  5  1  0
  5  6  1  6
  6  7  1  0
  7  8  2  0
  8  9  1  0
  9 10  1  0
 10 11  2  0
 10 12  1  0
  5 13  1  0
 13 14  2  0
 13 15  1  0
 12  7  1  0
M  CHG  1   2   1
M  END
$$$$
