
     RDKit          3D

 15 15  0  0  0  0  0  0  0  0999 V2000
   26.8765   51.2573   88.6509 C   0  0  0  0  0  0  0  0  0  0  0  0
   28.0608   52.0523   88.4100 N   0  0  0  0  0  4  0  0  0  0  0  0
   27.6731   53.0481   87.3950 C   0  0  0  0  0  0  0  0  0  0  0  0
   28.9820   51.1524   87.7127 C   0  0  0  0  0  0  0  0  0  0  0  0
   28.6151   52.6279   89.5711 C   0  0  1  0  0  0  0  0  0  0  0  0
   30.0707   52.8707   89.5898 C   0  0  0  0  0  0  0  0  0  0  0  0
   30.9232   52.0765   90.4489 C   0  0  0  0  0  0  0  0  0  0  0  0
   31.5607   50.9051   90.2493 C   0  0  0  0  0  0  0  0  0  0  0  0
   32.2091   50.5367   91.3924 N   0  0  0  0  0  0  0  0  0  0  0  0
   31.9644   51.4837   92.2833 C   0  0  0  0  0  0  0  0  0  0  0  0
   32.5024   51.5475   93.8367 S   0  0  0  0  0  0  0  0  0  0  0  0
   31.1954   52.4183   91.7419 N   0  0  0  0  0  0  0  0  0  0  0  0
   27.9408   53.8231   90.1318 C   0  0  0  0  0  0  0  0  0  0  0  0
   27.8754   54.9258   89.5878 O   0  0  0  0  0  0  0  0  0  0  0  0
   27.3189   53.7079   91.3872 O   0  0  0  0  0  0  0  0  0  0  0  0
  1  2  1  0
  2  3  1  0
  2  4  1  0
  2  5  1  0
  5  6  1  6
  6  7  1  0
  7  8  2  0
  8  9  1  0
  9 10  1  0
 10 11  2  0
 10 12  1  0
  5 13  1  0
 13 14  2  0
 13 15  1  0
 12  7  1  0
M  CHG  1   2   1
M  END
$$$$
