
     RDKit          3D

 15 15  0  0  0  0  0  0  0  0999 V2000
   17.1423   59.9285   64.2757 C   0  0  0  0  0  0  0  0  0  0  0  0
   18.3486   60.6496   64.6179 N   0  0  0  0  0  4  0  0  0  0  0  0
   17.8983   61.9215   65.2110 C   0  0  0  0  0  0  0  0  0  0  0  0
   18.9374   61.0289   63.3318 C   0  0  0  0  0  0  0  0  0  0  0  0
   19.2342   59.9317   65.4469 C   0  0  1  0  0  0  0  0  0  0  0  0
   18.7967   59.6342   66.8247 C   0  0  0  0  0  0  0  0  0  0  0  0
   19.7802   59.3459   67.8471 C   0  0  0  0  0  0  0  0  0  0  0  0
   20.6346   58.3152   68.0083 C   0  0  0  0  0  0  0  0  0  0  0  0
   21.3329   58.4774   69.1698 N   0  0  0  0  0  0  0  0  0  0  0  0
   20.9017   59.6049   69.7114 C   0  0  0  0  0  0  0  0  0  0  0  0
   21.4044   60.2831   71.1234 S   0  0  0  0  0  0  0  0  0  0  0  0
   19.9703   60.1446   68.9373 N   0  0  0  0  0  0  0  0  0  0  0  0
   19.8575   58.7090   64.8866 C   0  0  0  0  0  0  0  0  0  0  0  0
   19.2964   57.6215   64.7491 O   0  0  0  0  0  0  0  0  0  0  0  0
   21.1991   58.7766   64.4724 O   0  0  0  0  0  0  0  0  0  0  0  0
  1  2  1  0
  2  3  1  0
  2  4  1  0
  2  5  1  0
  5  6  1  1
  6  7  1  0
  7  8  2  0
  8  9  1  0
  9 10  1  0
 10 11  2  0
 10 12  1  0
  5 13  1  0
 13 14  2  0
 13 15  1  0
 12  7  1  0
M  CHG  1   2   1
M  END
$$$$
