
     RDKit          3D

 15 15  0  0  0  0  0  0  0  0999 V2000
   30.6262   52.1997   88.6707 C   0  0  0  0  0  0  0  0  0  0  0  0
   29.3444   51.5472   88.5160 N   0  0  0  0  0  4  0  0  0  0  0  0
   29.6033   50.1090   88.7073 C   0  0  0  0  0  0  0  0  0  0  0  0
   29.0246   51.6798   87.0931 C   0  0  0  0  0  0  0  0  0  0  0  0
   28.3360   52.0487   89.3636 C   0  0  1  0  0  0  0  0  0  0  0  0
   28.3468   51.6165   90.7747 C   0  0  0  0  0  0  0  0  0  0  0  0
   29.4725   51.9488   91.6220 C   0  0  0  0  0  0  0  0  0  0  0  0
   29.8379   53.0999   92.2219 C   0  0  0  0  0  0  0  0  0  0  0  0
   31.0178   52.9164   92.8832 N   0  0  0  0  0  0  0  0  0  0  0  0
   31.3665   51.6559   92.6838 C   0  0  0  0  0  0  0  0  0  0  0  0
   32.7087   50.8955   93.2554 S   0  0  0  0  0  0  0  0  0  0  0  0
   30.4561   51.0544   91.9305 N   0  0  0  0  0  0  0  0  0  0  0  0
   28.0763   53.5079   89.3301 C   0  0  0  0  0  0  0  0  0  0  0  0
   28.8128   54.3516   88.8183 O   0  0  0  0  0  0  0  0  0  0  0  0
   26.8971   53.9871   89.9267 O   0  0  0  0  0  0  0  0  0  0  0  0
  1  2  1  0
  2  3  1  0
  2  4  1  0
  2  5  1  0
  5  6  1  1
  6  7  1  0
  7  8  2  0
  8  9  1  0
  9 10  1  0
 10 11  2  0
 10 12  1  0
  5 13  1  0
 13 14  2  0
 13 15  1  0
 12  7  1  0
M  CHG  1   2   1
M  END
$$$$
