
     RDKit          3D

 15 15  0  0  0  0  0  0  0  0999 V2000
   18.6510   61.1681   63.4862 C   0  0  0  0  0  0  0  0  0  0  0  0
   18.5207   60.7282   64.8580 N   0  0  0  0  0  4  0  0  0  0  0  0
   17.3485   59.8350   64.8809 C   0  0  0  0  0  0  0  0  0  0  0  0
   18.0931   61.9189   65.5955 C   0  0  0  0  0  0  0  0  0  0  0  0
   19.6843   60.1330   65.3858 C   0  0  1  0  0  0  0  0  0  0  0  0
   19.9115   60.2399   66.8401 C   0  0  0  0  0  0  0  0  0  0  0  0
   18.9364   59.7000   67.7639 C   0  0  0  0  0  0  0  0  0  0  0  0
   17.9121   60.2734   68.4275 C   0  0  0  0  0  0  0  0  0  0  0  0
   17.3071   59.3454   69.2248 N   0  0  0  0  0  0  0  0  0  0  0  0
   17.9644   58.2115   69.0445 C   0  0  0  0  0  0  0  0  0  0  0  0
   17.6587   56.7626   69.7614 S   0  0  0  0  0  0  0  0  0  0  0  0
   18.9461   58.3980   68.1730 N   0  0  0  0  0  0  0  0  0  0  0  0
   19.9904   58.7428   64.9720 C   0  0  0  0  0  0  0  0  0  0  0  0
   19.2089   57.7930   65.0305 O   0  0  0  0  0  0  0  0  0  0  0  0
   21.2735   58.4661   64.4689 O   0  0  0  0  0  0  0  0  0  0  0  0
  1  2  1  0
  2  3  1  0
  2  4  1  0
  2  5  1  0
  5  6  1  1
  6  7  1  0
  7  8  2  0
  8  9  1  0
  9 10  1  0
 10 11  2  0
 10 12  1  0
  5 13  1  0
 13 14  2  0
 13 15  1  0
 12  7  1  0
M  CHG  1   2   1
M  END
$$$$
