
     RDKit          3D

 15 15  0  0  0  0  0  0  0  0999 V2000
   29.6751   50.2991   88.0900 C   0  0  0  0  0  0  0  0  0  0  0  0
   29.4107   51.7094   88.2729 N   0  0  0  0  0  4  0  0  0  0  0  0
   29.0827   52.2307   86.9339 C   0  0  0  0  0  0  0  0  0  0  0  0
   30.7136   52.2979   88.5903 C   0  0  0  0  0  0  0  0  0  0  0  0
   28.4217   51.9905   89.2372 C   0  0  1  0  0  0  0  0  0  0  0  0
   28.5552   51.3565   90.5632 C   0  0  0  0  0  0  0  0  0  0  0  0
   29.6062   51.7820   91.4633 C   0  0  0  0  0  0  0  0  0  0  0  0
   29.8526   52.9640   92.0636 C   0  0  0  0  0  0  0  0  0  0  0  0
   31.0058   52.8770   92.7887 N   0  0  0  0  0  0  0  0  0  0  0  0
   31.4571   51.6438   92.6275 C   0  0  0  0  0  0  0  0  0  0  0  0
   32.8194   50.9926   93.2805 S   0  0  0  0  0  0  0  0  0  0  0  0
   30.6355   50.9673   91.8368 N   0  0  0  0  0  0  0  0  0  0  0  0
   28.0473   53.4105   89.4403 C   0  0  0  0  0  0  0  0  0  0  0  0
   28.7380   54.3814   89.1296 O   0  0  0  0  0  0  0  0  0  0  0  0
   26.8052   53.6920   90.0353 O   0  0  0  0  0  0  0  0  0  0  0  0
  1  2  1  0
  2  3  1  0
  2  4  1  0
  2  5  1  0
  5  6  1  1
  6  7  1  0
  7  8  2  0
  8  9  1  0
  9 10  1  0
 10 11  2  0
 10 12  1  0
  5 13  1  0
 13 14  2  0
 13 15  1  0
 12  7  1  0
M  CHG  1   2   1
M  END
$$$$
