
     RDKit          3D

 15 15  0  0  0  0  0  0  0  0999 V2000
   32.1649   50.9736   90.9754 C   0  0  0  0  0  0  0  0  0  0  0  0
   30.8987   51.4728   91.4652 N   0  0  0  0  0  4  0  0  0  0  0  0
   31.2319   52.3921   92.5679 C   0  0  0  0  0  0  0  0  0  0  0  0
   30.2691   50.3235   92.1188 C   0  0  0  0  0  0  0  0  0  0  0  0
   30.0891   52.0633   90.4738 C   0  0  1  0  0  0  0  0  0  0  0  0
   29.7800   51.2631   89.2729 C   0  0  0  0  0  0  0  0  0  0  0  0
   29.0023   51.8449   88.1993 C   0  0  0  0  0  0  0  0  0  0  0  0
   28.4472   53.0646   88.0494 C   0  0  0  0  0  0  0  0  0  0  0  0
   27.7644   53.1143   86.8685 N   0  0  0  0  0  0  0  0  0  0  0  0
   27.9058   51.9260   86.3042 C   0  0  0  0  0  0  0  0  0  0  0  0
   27.2860   51.4323   84.8625 S   0  0  0  0  0  0  0  0  0  0  0  0
   28.6439   51.1468   87.0827 N   0  0  0  0  0  0  0  0  0  0  0  0
   28.8421   52.7316   90.9165 C   0  0  0  0  0  0  0  0  0  0  0  0
   27.7661   52.1694   91.1218 O   0  0  0  0  0  0  0  0  0  0  0  0
   28.8705   54.1216   91.1243 O   0  0  0  0  0  0  0  0  0  0  0  0
  1  2  1  0
  2  3  1  0
  2  4  1  0
  2  5  1  0
  5  6  1  6
  6  7  1  0
  7  8  2  0
  8  9  1  0
  9 10  1  0
 10 11  2  0
 10 12  1  0
  5 13  1  0
 13 14  2  0
 13 15  1  0
 12  7  1  0
M  CHG  1   2   1
M  END
$$$$
