
     RDKit          3D

 15 15  0  0  0  0  0  0  0  0999 V2000
   30.7867   50.5118   90.2148 C   0  0  0  0  0  0  0  0  0  0  0  0
   30.6611   51.3615   91.3787 N   0  0  0  0  0  4  0  0  0  0  0  0
   32.0147   51.4518   91.9546 C   0  0  0  0  0  0  0  0  0  0  0  0
   29.9003   50.5659   92.3444 C   0  0  0  0  0  0  0  0  0  0  0  0
   30.0837   52.6200   91.1144 C   0  0  1  0  0  0  0  0  0  0  0  0
   30.4659   53.3020   89.8627 C   0  0  0  0  0  0  0  0  0  0  0  0
   29.7593   53.0047   88.6348 C   0  0  0  0  0  0  0  0  0  0  0  0
   28.4928   52.6059   88.3997 C   0  0  0  0  0  0  0  0  0  0  0  0
   28.3163   52.4094   87.0605 N   0  0  0  0  0  0  0  0  0  0  0  0
   29.4747   52.6886   86.4855 C   0  0  0  0  0  0  0  0  0  0  0  0
   29.8276   52.6192   84.8801 S   0  0  0  0  0  0  0  0  0  0  0  0
   30.3563   53.0480   87.4083 N   0  0  0  0  0  0  0  0  0  0  0  0
   28.6162   52.7484   91.2802 C   0  0  0  0  0  0  0  0  0  0  0  0
   27.7958   51.8499   91.0907 O   0  0  0  0  0  0  0  0  0  0  0  0
   28.0992   53.9908   91.6866 O   0  0  0  0  0  0  0  0  0  0  0  0
  1  2  1  0
  2  3  1  0
  2  4  1  0
  2  5  1  0
  5  6  1  6
  6  7  1  0
  7  8  2  0
  8  9  1  0
  9 10  1  0
 10 11  2  0
 10 12  1  0
  5 13  1  0
 13 14  2  0
 13 15  1  0
 12  7  1  0
M  CHG  1   2   1
M  END
$$$$
