
     RDKit          3D

 15 15  0  0  0  0  0  0  0  0999 V2000
   32.0257   50.7395   90.9373 C   0  0  0  0  0  0  0  0  0  0  0  0
   30.8310   51.3367   91.4928 N   0  0  0  0  0  4  0  0  0  0  0  0
   31.2702   52.0582   92.7005 C   0  0  0  0  0  0  0  0  0  0  0  0
   30.0478   50.2081   92.0001 C   0  0  0  0  0  0  0  0  0  0  0  0
   30.1178   52.1488   90.5879 C   0  0  1  0  0  0  0  0  0  0  0  0
   29.7874   51.5792   89.2671 C   0  0  0  0  0  0  0  0  0  0  0  0
   29.3487   52.4489   88.1962 C   0  0  0  0  0  0  0  0  0  0  0  0
   28.4646   53.4668   88.1689 C   0  0  0  0  0  0  0  0  0  0  0  0
   28.3602   53.9479   86.8958 N   0  0  0  0  0  0  0  0  0  0  0  0
   29.1800   53.2220   86.1531 C   0  0  0  0  0  0  0  0  0  0  0  0
   29.4502   53.3722   84.5372 S   0  0  0  0  0  0  0  0  0  0  0  0
   29.7844   52.3163   86.9096 N   0  0  0  0  0  0  0  0  0  0  0  0
   28.9184   52.8540   91.0993 C   0  0  0  0  0  0  0  0  0  0  0  0
   27.8073   52.3478   91.2585 O   0  0  0  0  0  0  0  0  0  0  0  0
   29.0396   54.2135   91.4359 O   0  0  0  0  0  0  0  0  0  0  0  0
  1  2  1  0
  2  3  1  0
  2  4  1  0
  2  5  1  0
  5  6  1  6
  6  7  1  0
  7  8  2  0
  8  9  1  0
  9 10  1  0
 10 11  2  0
 10 12  1  0
  5 13  1  0
 13 14  2  0
 13 15  1  0
 12  7  1  0
M  CHG  1   2   1
M  END
$$$$
