
     RDKit          3D

 15 15  0  0  0  0  0  0  0  0999 V2000
   30.4538   52.9468   87.3322 C   0  0  0  0  0  0  0  0  0  0  0  0
   29.0764   52.6270   87.0270 N   0  0  0  0  0  4  0  0  0  0  0  0
   29.1116   51.3198   86.3473 C   0  0  0  0  0  0  0  0  0  0  0  0
   28.6928   53.5778   85.9813 C   0  0  0  0  0  0  0  0  0  0  0  0
   28.2176   52.6502   88.1446 C   0  0  1  0  0  0  0  0  0  0  0  0
   28.4016   51.6089   89.1740 C   0  0  0  0  0  0  0  0  0  0  0  0
   29.3646   51.8075   90.2365 C   0  0  0  0  0  0  0  0  0  0  0  0
   29.5432   52.8179   91.1114 C   0  0  0  0  0  0  0  0  0  0  0  0
   30.6294   52.5572   91.8957 N   0  0  0  0  0  0  0  0  0  0  0  0
   31.1081   51.3903   91.4960 C   0  0  0  0  0  0  0  0  0  0  0  0
   32.4160   50.5953   92.0993 S   0  0  0  0  0  0  0  0  0  0  0  0
   30.3671   50.9203   90.5021 N   0  0  0  0  0  0  0  0  0  0  0  0
   28.0232   53.9492   88.8319 C   0  0  0  0  0  0  0  0  0  0  0  0
   28.8591   54.8506   88.9026 O   0  0  0  0  0  0  0  0  0  0  0  0
   26.7894   54.1905   89.4609 O   0  0  0  0  0  0  0  0  0  0  0  0
  1  2  1  0
  2  3  1  0
  2  4  1  0
  2  5  1  0
  5  6  1  1
  6  7  1  0
  7  8  2  0
  8  9  1  0
  9 10  1  0
 10 11  2  0
 10 12  1  0
  5 13  1  0
 13 14  2  0
 13 15  1  0
 12  7  1  0
M  CHG  1   2   1
M  END
$$$$
