
     RDKit          3D

 15 15  0  0  0  0  0  0  0  0999 V2000
   32.0322   50.7256   90.8850 C   0  0  0  0  0  0  0  0  0  0  0  0
   30.7996   51.3009   91.3772 N   0  0  0  0  0  4  0  0  0  0  0  0
   31.0759   51.7071   92.7667 C   0  0  0  0  0  0  0  0  0  0  0  0
   29.8787   50.1688   91.4987 C   0  0  0  0  0  0  0  0  0  0  0  0
   30.2939   52.3486   90.5812 C   0  0  1  0  0  0  0  0  0  0  0  0
   30.4653   52.2447   89.1191 C   0  0  0  0  0  0  0  0  0  0  0  0
   29.3107   52.3294   88.2499 C   0  0  0  0  0  0  0  0  0  0  0  0
   28.2060   53.1013   88.2944 C   0  0  0  0  0  0  0  0  0  0  0  0
   27.3753   52.7709   87.2629 N   0  0  0  0  0  0  0  0  0  0  0  0
   27.9763   51.7999   86.5949 C   0  0  0  0  0  0  0  0  0  0  0  0
   27.4185   51.0244   85.2554 S   0  0  0  0  0  0  0  0  0  0  0  0
   29.1385   51.5170   87.1669 N   0  0  0  0  0  0  0  0  0  0  0  0
   28.9107   52.8081   90.8521 C   0  0  0  0  0  0  0  0  0  0  0  0
   27.9108   52.0897   90.8669 O   0  0  0  0  0  0  0  0  0  0  0  0
   28.7033   54.1732   91.1159 O   0  0  0  0  0  0  0  0  0  0  0  0
  1  2  1  0
  2  3  1  0
  2  4  1  0
  2  5  1  0
  5  6  1  6
  6  7  1  0
  7  8  2  0
  8  9  1  0
  9 10  1  0
 10 11  2  0
 10 12  1  0
  5 13  1  0
 13 14  2  0
 13 15  1  0
 12  7  1  0
M  CHG  1   2   1
M  END
$$$$
