
     RDKit          3D

 15 15  0  0  0  0  0  0  0  0999 V2000
   29.1373   51.0606   87.7908 C   0  0  0  0  0  0  0  0  0  0  0  0
   28.0211   51.6830   88.4686 N   0  0  0  0  0  4  0  0  0  0  0  0
   27.1709   50.5743   88.9376 C   0  0  0  0  0  0  0  0  0  0  0  0
   27.2436   52.3210   87.4042 C   0  0  0  0  0  0  0  0  0  0  0  0
   28.3938   52.5720   89.4969 C   0  0  1  0  0  0  0  0  0  0  0  0
   29.8148   52.9601   89.5881 C   0  0  0  0  0  0  0  0  0  0  0  0
   30.7315   52.1609   90.3733 C   0  0  0  0  0  0  0  0  0  0  0  0
   31.4556   51.0644   90.0704 C   0  0  0  0  0  0  0  0  0  0  0  0
   32.1381   50.6471   91.1764 N   0  0  0  0  0  0  0  0  0  0  0  0
   31.8275   51.4898   92.1478 C   0  0  0  0  0  0  0  0  0  0  0  0
   32.3694   51.4569   93.7008 S   0  0  0  0  0  0  0  0  0  0  0  0
   30.9854   52.4067   91.6916 N   0  0  0  0  0  0  0  0  0  0  0  0
   27.5701   53.7908   89.6804 C   0  0  0  0  0  0  0  0  0  0  0  0
   27.2786   54.5945   88.7942 O   0  0  0  0  0  0  0  0  0  0  0  0
   27.0716   54.0692   90.9649 O   0  0  0  0  0  0  0  0  0  0  0  0
  1  2  1  0
  2  3  1  0
  2  4  1  0
  2  5  1  0
  5  6  1  6
  6  7  1  0
  7  8  2  0
  8  9  1  0
  9 10  1  0
 10 11  2  0
 10 12  1  0
  5 13  1  0
 13 14  2  0
 13 15  1  0
 12  7  1  0
M  CHG  1   2   1
M  END
$$$$
