
     RDKit          3D

 15 15  0  0  0  0  0  0  0  0999 V2000
   19.0524   61.7648   63.6586 C   0  0  0  0  0  0  0  0  0  0  0  0
   18.5271   60.9540   64.7352 N   0  0  0  0  0  4  0  0  0  0  0  0
   17.6213   59.9821   64.0972 C   0  0  0  0  0  0  0  0  0  0  0  0
   17.6419   61.8497   65.4827 C   0  0  0  0  0  0  0  0  0  0  0  0
   19.5160   60.3497   65.5375 C   0  0  1  0  0  0  0  0  0  0  0  0
   19.3006   60.3328   66.9974 C   0  0  0  0  0  0  0  0  0  0  0  0
   18.3781   59.3808   67.5792 C   0  0  0  0  0  0  0  0  0  0  0  0
   17.0904   59.0917   67.3026 C   0  0  0  0  0  0  0  0  0  0  0  0
   16.6387   58.1401   68.1707 N   0  0  0  0  0  0  0  0  0  0  0  0
   17.6516   57.8537   68.9722 C   0  0  0  0  0  0  0  0  0  0  0  0
   17.6621   56.7690   70.2091 S   0  0  0  0  0  0  0  0  0  0  0  0
   18.7062   58.5846   68.6379 N   0  0  0  0  0  0  0  0  0  0  0  0
   20.0068   59.0120   65.1281 C   0  0  0  0  0  0  0  0  0  0  0  0
   19.3660   58.1858   64.4778 O   0  0  0  0  0  0  0  0  0  0  0  0
   21.3085   58.6377   65.5041 O   0  0  0  0  0  0  0  0  0  0  0  0
  1  2  1  0
  2  3  1  0
  2  4  1  0
  2  5  1  0
  5  6  1  1
  6  7  1  0
  7  8  2  0
  8  9  1  0
  9 10  1  0
 10 11  2  0
 10 12  1  0
  5 13  1  0
 13 14  2  0
 13 15  1  0
 12  7  1  0
M  CHG  1   2   1
M  END
$$$$
