
     RDKit          3D

 15 15  0  0  0  0  0  0  0  0999 V2000
   19.3331   61.5261   63.7957 C   0  0  0  0  0  0  0  0  0  0  0  0
   18.4838   60.9047   64.7883 N   0  0  0  0  0  4  0  0  0  0  0  0
   17.4337   60.2010   64.0306 C   0  0  0  0  0  0  0  0  0  0  0  0
   17.7886   62.0178   65.4380 C   0  0  0  0  0  0  0  0  0  0  0  0
   19.1702   60.0707   65.6939 C   0  0  1  0  0  0  0  0  0  0  0  0
   18.4044   59.5023   66.8202 C   0  0  0  0  0  0  0  0  0  0  0  0
   19.0904   59.1073   68.0322 C   0  0  0  0  0  0  0  0  0  0  0  0
   20.3448   58.6641   68.2522 C   0  0  0  0  0  0  0  0  0  0  0  0
   20.5020   58.3748   69.5768 N   0  0  0  0  0  0  0  0  0  0  0  0
   19.3440   58.6423   70.1582 C   0  0  0  0  0  0  0  0  0  0  0  0
   18.9719   58.4745   71.7519 S   0  0  0  0  0  0  0  0  0  0  0  0
   18.4811   59.0830   69.2532 N   0  0  0  0  0  0  0  0  0  0  0  0
   20.0212   58.9976   65.1266 C   0  0  0  0  0  0  0  0  0  0  0  0
   21.2114   59.1121   64.8321 O   0  0  0  0  0  0  0  0  0  0  0  0
   19.4396   57.7383   64.8988 O   0  0  0  0  0  0  0  0  0  0  0  0
  1  2  1  0
  2  3  1  0
  2  4  1  0
  2  5  1  0
  5  6  1  1
  6  7  1  0
  7  8  2  0
  8  9  1  0
  9 10  1  0
 10 11  2  0
 10 12  1  0
  5 13  1  0
 13 14  2  0
 13 15  1  0
 12  7  1  0
M  CHG  1   2   1
M  END
$$$$
