
     RDKit          3D

 15 15  0  0  0  0  0  0  0  0999 V2000
   18.5648   60.6703   63.2951 C   0  0  0  0  0  0  0  0  0  0  0  0
   18.2915   60.7102   64.7150 N   0  0  0  0  0  4  0  0  0  0  0  0
   16.9997   60.0231   64.8920 C   0  0  0  0  0  0  0  0  0  0  0  0
   18.0050   62.1172   65.0031 C   0  0  0  0  0  0  0  0  0  0  0  0
   19.3208   60.1751   65.5157 C   0  0  1  0  0  0  0  0  0  0  0  0
   19.2019   60.3262   66.9789 C   0  0  0  0  0  0  0  0  0  0  0  0
   19.2632   59.1580   67.8318 C   0  0  0  0  0  0  0  0  0  0  0  0
   20.2549   58.2801   68.0849 C   0  0  0  0  0  0  0  0  0  0  0  0
   19.8025   57.3114   68.9334 N   0  0  0  0  0  0  0  0  0  0  0  0
   18.5384   57.6022   69.1936 C   0  0  0  0  0  0  0  0  0  0  0  0
   17.5067   56.7642   70.1630 S   0  0  0  0  0  0  0  0  0  0  0  0
   18.1912   58.7051   68.5448 N   0  0  0  0  0  0  0  0  0  0  0  0
   19.7605   58.7887   65.2293 C   0  0  0  0  0  0  0  0  0  0  0  0
   19.0233   57.8040   65.1733 O   0  0  0  0  0  0  0  0  0  0  0  0
   21.1283   58.5590   65.0001 O   0  0  0  0  0  0  0  0  0  0  0  0
  1  2  1  0
  2  3  1  0
  2  4  1  0
  2  5  1  0
  5  6  1  1
  6  7  1  0
  7  8  2  0
  8  9  1  0
  9 10  1  0
 10 11  2  0
 10 12  1  0
  5 13  1  0
 13 14  2  0
 13 15  1  0
 12  7  1  0
M  CHG  1   2   1
M  END
$$$$
