7R9N_F97_holo_aligned_esmfold_protein
     RDKit          3D

 31 35  0  0  0  0  0  0  0  0999 V2000
  -39.6435 -112.5307  228.8587 C   0  0  0  0  0  0  0  0  0  0  0  0
  -40.1390 -112.9120  227.4625 C   0  0  0  0  0  0  0  0  0  0  0  0
  -41.4679 -112.2125  227.1695 C   0  0  0  0  0  0  0  0  0  0  0  0
  -40.2789 -114.3794  227.3427 N   0  0  0  0  0  0  0  0  0  0  0  0
  -40.7728 -115.2025  228.3271 N   0  0  0  0  0  0  0  0  0  0  0  0
  -40.8553 -116.4050  227.7995 C   0  0  0  0  0  0  0  0  0  0  0  0
  -40.4807 -116.3727  226.4127 C   0  0  0  0  0  0  0  0  0  0  0  0
  -40.5635 -117.2937  225.3716 C   0  0  0  0  0  0  0  0  0  0  0  0
  -40.2573 -116.9767  224.0968 N   0  0  0  0  0  0  0  0  0  0  0  0
  -39.8810 -115.7196  223.8228 C   0  0  0  0  0  0  0  0  0  0  0  0
  -39.7375 -115.5248  222.4566 N   0  0  0  0  0  0  0  0  0  0  0  0
  -39.5298 -114.3365  221.7608 C   0  0  0  0  0  0  0  0  0  0  0  0
  -39.3515 -114.3693  220.3866 C   0  0  0  0  0  0  0  0  0  0  0  0
  -39.1030 -113.1681  219.7118 C   0  0  0  0  0  0  0  0  0  0  0  0
  -38.9364 -113.1293  218.1986 C   0  0  2  0  0  0  0  0  0  0  0  0
  -38.4628 -114.4314  217.5455 C   0  0  0  0  0  0  0  0  0  0  0  0
  -37.8322 -113.9954  216.2233 C   0  0  0  0  0  0  0  0  0  0  0  0
  -37.5000 -112.5700  216.3768 N   0  0  0  0  0  0  0  0  0  0  0  0
  -37.8491 -112.1528  217.7465 C   0  0  0  0  0  0  0  0  0  0  0  0
  -39.0654 -112.0165  220.4138 N   0  0  0  0  0  0  0  0  0  0  0  0
  -39.2625 -112.0508  221.7375 C   0  0  0  0  0  0  0  0  0  0  0  0
  -39.2409 -110.8951  222.4969 N   0  0  0  0  0  0  0  0  0  0  0  0
  -39.0039 -109.5449  221.9823 C   0  0  0  0  0  0  0  0  0  0  0  0
  -39.3689 -108.6067  223.1355 C   0  0  0  0  0  0  0  0  0  0  0  0
  -39.1246 -109.4096  224.4140 C   0  0  0  0  0  0  0  0  0  0  0  0
  -39.9809 -109.0471  225.4118 F   0  0  0  0  0  0  0  0  0  0  0  0
  -37.8540 -109.2124  224.8732 F   0  0  0  0  0  0  0  0  0  0  0  0
  -39.3337 -110.8737  223.9724 C   0  0  0  0  0  0  0  0  0  0  0  0
  -39.4915 -113.1763  222.4007 N   0  0  0  0  0  0  0  0  0  0  0  0
  -39.7508 -114.7548  224.8489 C   0  0  0  0  0  0  0  0  0  0  0  0
  -40.0991 -115.0861  226.1564 C   0  0  0  0  0  0  0  0  0  0  0  0
  1  2  1  0
  2  3  1  0
  2  4  1  0
  4  5  1  0
  5  6  2  0
  6  7  1  0
  7  8  2  0
  8  9  1  0
  9 10  2  0
 10 11  1  0
 11 12  1  0
 12 13  2  0
 13 14  1  0
 15 14  1  1
 15 16  1  0
 16 17  1  0
 17 18  1  0
 18 19  1  0
 14 20  2  0
 20 21  1  0
 21 22  1  0
 22 23  1  0
 23 24  1  0
 24 25  1  0
 25 26  1  0
 25 27  1  0
 25 28  1  0
 21 29  2  0
 10 30  1  0
 30 31  2  0
 31  4  1  0
 31  7  1  0
 29 12  1  0
 19 15  1  0
 28 22  1  0
M  END
