
     RDKit          3D

 31 35  0  0  0  0  0  0  0  0999 V2000
  -38.5552 -112.6064  227.9395 C   0  0  0  0  0  0  0  0  0  0  0  0
  -39.1916 -112.9733  226.6115 C   0  0  0  0  0  0  0  0  0  0  0  0
  -40.2674 -111.9508  226.3183 C   0  0  0  0  0  0  0  0  0  0  0  0
  -39.8823 -114.2529  226.8312 N   0  0  0  0  0  0  0  0  0  0  0  0
  -40.4887 -114.6495  227.9336 N   0  0  0  0  0  0  0  0  0  0  0  0
  -41.0147 -115.8777  227.7840 C   0  0  0  0  0  0  0  0  0  0  0  0
  -40.7240 -116.2900  226.5019 C   0  0  0  0  0  0  0  0  0  0  0  0
  -40.9725 -117.4152  225.7495 C   0  0  0  0  0  0  0  0  0  0  0  0
  -40.5258 -117.4770  224.4948 N   0  0  0  0  0  0  0  0  0  0  0  0
  -39.8359 -116.5092  223.8866 C   0  0  0  0  0  0  0  0  0  0  0  0
  -39.3706 -116.5978  222.5498 N   0  0  0  0  0  0  0  0  0  0  0  0
  -39.3226 -115.4154  221.7551 C   0  0  0  0  0  0  0  0  0  0  0  0
  -39.4839 -115.4545  220.3828 C   0  0  0  0  0  0  0  0  0  0  0  0
  -39.4246 -114.2749  219.6905 C   0  0  0  0  0  0  0  0  0  0  0  0
  -39.5964 -114.3010  218.2132 C   0  0  2  0  0  0  0  0  0  0  0  0
  -38.5727 -115.2337  217.6278 C   0  0  0  0  0  0  0  0  0  0  0  0
  -38.1449 -114.5805  216.3306 C   0  0  0  0  0  0  0  0  0  0  0  0
  -38.9025 -113.3532  216.2249 N   0  0  0  0  0  0  0  0  0  0  0  0
  -39.2083 -112.9753  217.5837 C   0  0  0  0  0  0  0  0  0  0  0  0
  -39.2145 -113.1053  220.3290 N   0  0  0  0  0  0  0  0  0  0  0  0
  -39.0555 -113.0560  221.6706 C   0  0  0  0  0  0  0  0  0  0  0  0
  -38.8344 -111.8218  222.3410 N   0  0  0  0  0  0  0  0  0  0  0  0
  -38.7209 -110.5340  221.6835 C   0  0  0  0  0  0  0  0  0  0  0  0
  -39.5721 -109.6664  222.6204 C   0  0  0  0  0  0  0  0  0  0  0  0
  -39.0424 -110.1138  223.9665 C   0  0  0  0  0  0  0  0  0  0  0  0
  -37.9292 -109.3380  224.2352 F   0  0  0  0  0  0  0  0  0  0  0  0
  -39.9471 -109.9428  224.9793 F   0  0  0  0  0  0  0  0  0  0  0  0
  -38.6784 -111.5650  223.7532 C   0  0  0  0  0  0  0  0  0  0  0  0
  -39.1151 -114.2054  222.3293 N   0  0  0  0  0  0  0  0  0  0  0  0
  -39.5745 -115.3716  224.6205 C   0  0  0  0  0  0  0  0  0  0  0  0
  -40.0165 -115.2580  225.9279 C   0  0  0  0  0  0  0  0  0  0  0  0
  1  2  1  0
  2  3  1  0
  2  4  1  0
  4  5  1  0
  5  6  2  0
  6  7  1  0
  7  8  2  0
  8  9  1  0
  9 10  2  0
 10 11  1  0
 11 12  1  0
 12 13  2  0
 13 14  1  0
 15 14  1  1
 15 16  1  0
 16 17  1  0
 17 18  1  0
 18 19  1  0
 14 20  2  0
 20 21  1  0
 21 22  1  0
 22 23  1  0
 23 24  1  0
 24 25  1  0
 25 26  1  0
 25 27  1  0
 25 28  1  0
 21 29  2  0
 10 30  1  0
 30 31  2  0
 31  4  1  0
 31  7  1  0
 29 12  1  0
 19 15  1  0
 28 22  1  0
M  END
$$$$
