
     RDKit          3D

 31 35  0  0  0  0  0  0  0  0999 V2000
  -23.3931  -89.2395  229.7915 C   0  0  0  0  0  0  0  0  0  0  0  0
  -22.5103  -89.0233  231.0070 C   0  0  0  0  0  0  0  0  0  0  0  0
  -23.3905  -88.5271  232.1329 C   0  0  0  0  0  0  0  0  0  0  0  0
  -21.6090  -87.9134  230.6629 N   0  0  0  0  0  0  0  0  0  0  0  0
  -21.9320  -86.7853  230.0599 N   0  0  0  0  0  0  0  0  0  0  0  0
  -20.8570  -85.9933  229.9026 C   0  0  0  0  0  0  0  0  0  0  0  0
  -19.7789  -86.6612  230.4409 C   0  0  0  0  0  0  0  0  0  0  0  0
  -18.4358  -86.4021  230.5921 C   0  0  0  0  0  0  0  0  0  0  0  0
  -17.6556  -87.3076  231.1827 N   0  0  0  0  0  0  0  0  0  0  0  0
  -18.0798  -88.4821  231.6551 C   0  0  0  0  0  0  0  0  0  0  0  0
  -17.2302  -89.4302  232.2800 N   0  0  0  0  0  0  0  0  0  0  0  0
  -17.7567  -90.2495  233.3209 C   0  0  0  0  0  0  0  0  0  0  0  0
  -17.0407  -90.5094  234.4744 C   0  0  0  0  0  0  0  0  0  0  0  0
  -17.6162  -91.3060  235.4275 C   0  0  0  0  0  0  0  0  0  0  0  0
  -16.8579  -91.5946  236.6742 C   0  0  2  0  0  0  0  0  0  0  0  0
  -15.5258  -92.1826  236.3000 C   0  0  0  0  0  0  0  0  0  0  0  0
  -15.2521  -93.2339  237.3548 C   0  0  0  0  0  0  0  0  0  0  0  0
  -16.3853  -93.2125  238.2529 N   0  0  0  0  0  0  0  0  0  0  0  0
  -17.4906  -92.7280  237.4613 C   0  0  0  0  0  0  0  0  0  0  0  0
  -18.8486  -91.8240  235.2471 N   0  0  0  0  0  0  0  0  0  0  0  0
  -19.5573  -91.5762  234.1228 C   0  0  0  0  0  0  0  0  0  0  0  0
  -20.8561  -92.1234  233.9355 N   0  0  0  0  0  0  0  0  0  0  0  0
  -21.8622  -91.5756  233.0460 C   0  0  0  0  0  0  0  0  0  0  0  0
  -22.3898  -92.8616  232.3957 C   0  0  0  0  0  0  0  0  0  0  0  0
  -22.5559  -93.7397  233.6181 C   0  0  0  0  0  0  0  0  0  0  0  0
  -23.8098  -93.4697  234.1360 F   0  0  0  0  0  0  0  0  0  0  0  0
  -22.4827  -95.0756  233.3291 F   0  0  0  0  0  0  0  0  0  0  0  0
  -21.4538  -93.2864  234.5475 C   0  0  0  0  0  0  0  0  0  0  0  0
  -18.9886  -90.8032  233.2077 N   0  0  0  0  0  0  0  0  0  0  0  0
  -19.4221  -88.7644  231.5151 C   0  0  0  0  0  0  0  0  0  0  0  0
  -20.2748  -87.8572  230.9089 C   0  0  0  0  0  0  0  0  0  0  0  0
  1  2  1  0
  2  3  1  0
  2  4  1  0
  4  5  1  0
  5  6  2  0
  6  7  1  0
  7  8  2  0
  8  9  1  0
  9 10  2  0
 10 11  1  0
 11 12  1  0
 12 13  2  0
 13 14  1  0
 15 14  1  6
 15 16  1  0
 16 17  1  0
 17 18  1  0
 18 19  1  0
 14 20  2  0
 20 21  1  0
 21 22  1  0
 22 23  1  0
 23 24  1  0
 24 25  1  0
 25 26  1  0
 25 27  1  0
 25 28  1  0
 21 29  2  0
 10 30  1  0
 30 31  2  0
 31  4  1  0
 31  7  1  0
 29 12  1  0
 19 15  1  0
 28 22  1  0
M  END
$$$$
