
     RDKit          3D

 31 35  0  0  0  0  0  0  0  0999 V2000
  -39.7416 -112.0145  227.5196 C   0  0  0  0  0  0  0  0  0  0  0  0
  -40.2047 -112.7294  226.2636 C   0  0  0  0  0  0  0  0  0  0  0  0
  -41.5667 -112.1819  225.8978 C   0  0  0  0  0  0  0  0  0  0  0  0
  -40.4100 -114.1342  226.6473 N   0  0  0  0  0  0  0  0  0  0  0  0
  -40.8324 -114.5859  227.8126 N   0  0  0  0  0  0  0  0  0  0  0  0
  -40.9043 -115.9284  227.8163 C   0  0  0  0  0  0  0  0  0  0  0  0
  -40.5011 -116.3596  226.5714 C   0  0  0  0  0  0  0  0  0  0  0  0
  -40.3535 -117.5798  225.9523 C   0  0  0  0  0  0  0  0  0  0  0  0
  -39.9245 -117.6275  224.6909 N   0  0  0  0  0  0  0  0  0  0  0  0
  -39.6160 -116.5582  223.9535 C   0  0  0  0  0  0  0  0  0  0  0  0
  -39.1610 -116.6340  222.6123 N   0  0  0  0  0  0  0  0  0  0  0  0
  -39.2123 -115.4650  221.7982 C   0  0  0  0  0  0  0  0  0  0  0  0
  -39.5591 -115.5246  220.4614 C   0  0  0  0  0  0  0  0  0  0  0  0
  -39.5854 -114.3570  219.7471 C   0  0  0  0  0  0  0  0  0  0  0  0
  -39.9566 -114.4051  218.3075 C   0  0  2  0  0  0  0  0  0  0  0  0
  -39.1586 -115.4920  217.6426 C   0  0  0  0  0  0  0  0  0  0  0  0
  -38.8242 -114.9476  216.2698 C   0  0  0  0  0  0  0  0  0  0  0  0
  -39.4141 -113.6291  216.2012 N   0  0  0  0  0  0  0  0  0  0  0  0
  -39.4793 -113.1686  217.5674 C   0  0  0  0  0  0  0  0  0  0  0  0
  -39.2815 -113.1794  220.3309 N   0  0  0  0  0  0  0  0  0  0  0  0
  -38.9412 -113.1101  221.6374 C   0  0  0  0  0  0  0  0  0  0  0  0
  -38.6215 -111.8675  222.2501 N   0  0  0  0  0  0  0  0  0  0  0  0
  -38.6694 -110.5811  221.5819 C   0  0  0  0  0  0  0  0  0  0  0  0
  -39.3400 -109.7279  222.6670 C   0  0  0  0  0  0  0  0  0  0  0  0
  -38.5458 -110.1558  223.8831 C   0  0  0  0  0  0  0  0  0  0  0  0
  -37.4199 -109.3534  223.9271 F   0  0  0  0  0  0  0  0  0  0  0  0
  -39.2377 -109.9997  225.0538 F   0  0  0  0  0  0  0  0  0  0  0  0
  -38.1972 -111.5995  223.6038 C   0  0  0  0  0  0  0  0  0  0  0  0
  -38.9194 -114.2481  222.3178 N   0  0  0  0  0  0  0  0  0  0  0  0
  -39.7559 -115.3241  224.5522 C   0  0  0  0  0  0  0  0  0  0  0  0
  -40.1980 -115.2204  225.8604 C   0  0  0  0  0  0  0  0  0  0  0  0
  1  2  1  0
  2  3  1  0
  2  4  1  0
  4  5  1  0
  5  6  2  0
  6  7  1  0
  7  8  2  0
  8  9  1  0
  9 10  2  0
 10 11  1  0
 11 12  1  0
 12 13  2  0
 13 14  1  0
 15 14  1  1
 15 16  1  0
 16 17  1  0
 17 18  1  0
 18 19  1  0
 14 20  2  0
 20 21  1  0
 21 22  1  0
 22 23  1  0
 23 24  1  0
 24 25  1  0
 25 26  1  0
 25 27  1  0
 25 28  1  0
 21 29  2  0
 10 30  1  0
 30 31  2  0
 31  4  1  0
 31  7  1  0
 29 12  1  0
 19 15  1  0
 28 22  1  0
M  END
$$$$
