
     RDKit          3D

 31 35  0  0  0  0  0  0  0  0999 V2000
  -39.8736 -112.2198  227.7828 C   0  0  0  0  0  0  0  0  0  0  0  0
  -40.1931 -112.7903  226.4133 C   0  0  0  0  0  0  0  0  0  0  0  0
  -41.4256 -112.0820  225.8955 C   0  0  0  0  0  0  0  0  0  0  0  0
  -40.5810 -114.1912  226.6365 N   0  0  0  0  0  0  0  0  0  0  0  0
  -41.1963 -114.6865  227.6931 N   0  0  0  0  0  0  0  0  0  0  0  0
  -41.3959 -116.0098  227.5632 C   0  0  0  0  0  0  0  0  0  0  0  0
  -40.8732 -116.3811  226.3438 C   0  0  0  0  0  0  0  0  0  0  0  0
  -40.7614 -117.5568  225.6374 C   0  0  0  0  0  0  0  0  0  0  0  0
  -40.1744 -117.5495  224.4404 N   0  0  0  0  0  0  0  0  0  0  0  0
  -39.6696 -116.4639  223.8496 C   0  0  0  0  0  0  0  0  0  0  0  0
  -39.0490 -116.4809  222.5744 N   0  0  0  0  0  0  0  0  0  0  0  0
  -39.1348 -115.3220  221.7488 C   0  0  0  0  0  0  0  0  0  0  0  0
  -39.5205 -115.4001  220.4237 C   0  0  0  0  0  0  0  0  0  0  0  0
  -39.5783 -114.2412  219.6973 C   0  0  0  0  0  0  0  0  0  0  0  0
  -39.9917 -114.3093  218.2700 C   0  0  2  0  0  0  0  0  0  0  0  0
  -39.0957 -115.2836  217.5572 C   0  0  0  0  0  0  0  0  0  0  0  0
  -38.8758 -114.6814  216.1855 C   0  0  0  0  0  0  0  0  0  0  0  0
  -39.6182 -113.4406  216.1631 N   0  0  0  0  0  0  0  0  0  0  0  0
  -39.6889 -113.0133  217.5398 C   0  0  0  0  0  0  0  0  0  0  0  0
  -39.2675 -113.0543  220.2582 N   0  0  0  0  0  0  0  0  0  0  0  0
  -38.8891 -112.9669  221.5531 C   0  0  0  0  0  0  0  0  0  0  0  0
  -38.5623 -111.7146  222.1417 N   0  0  0  0  0  0  0  0  0  0  0  0
  -38.6175 -110.4393  221.4532 C   0  0  0  0  0  0  0  0  0  0  0  0
  -39.2755 -109.5681  222.5316 C   0  0  0  0  0  0  0  0  0  0  0  0
  -38.4678 -109.9764  223.7456 C   0  0  0  0  0  0  0  0  0  0  0  0
  -37.3412 -109.1739  223.7637 F   0  0  0  0  0  0  0  0  0  0  0  0
  -39.1463 -109.8010  224.9213 F   0  0  0  0  0  0  0  0  0  0  0  0
  -38.1226 -111.4247  223.4860 C   0  0  0  0  0  0  0  0  0  0  0  0
  -38.8372 -114.0966  222.2455 N   0  0  0  0  0  0  0  0  0  0  0  0
  -39.7697 -115.2736  224.5380 C   0  0  0  0  0  0  0  0  0  0  0  0
  -40.3705 -115.2277  225.7849 C   0  0  0  0  0  0  0  0  0  0  0  0
  1  2  1  0
  2  3  1  0
  2  4  1  0
  4  5  1  0
  5  6  2  0
  6  7  1  0
  7  8  2  0
  8  9  1  0
  9 10  2  0
 10 11  1  0
 11 12  1  0
 12 13  2  0
 13 14  1  0
 15 14  1  1
 15 16  1  0
 16 17  1  0
 17 18  1  0
 18 19  1  0
 14 20  2  0
 20 21  1  0
 21 22  1  0
 22 23  1  0
 23 24  1  0
 24 25  1  0
 25 26  1  0
 25 27  1  0
 25 28  1  0
 21 29  2  0
 10 30  1  0
 30 31  2  0
 31  4  1  0
 31  7  1  0
 29 12  1  0
 19 15  1  0
 28 22  1  0
M  END
$$$$
