
     RDKit          3D

 31 35  0  0  0  0  0  0  0  0999 V2000
  -23.2662  -89.5681  229.4102 C   0  0  0  0  0  0  0  0  0  0  0  0
  -22.3716  -89.3901  230.6232 C   0  0  0  0  0  0  0  0  0  0  0  0
  -23.2579  -89.0647  231.8052 C   0  0  0  0  0  0  0  0  0  0  0  0
  -21.5672  -88.1869  230.3624 N   0  0  0  0  0  0  0  0  0  0  0  0
  -21.9650  -87.0787  229.7674 N   0  0  0  0  0  0  0  0  0  0  0  0
  -20.9674  -86.1803  229.6961 C   0  0  0  0  0  0  0  0  0  0  0  0
  -19.8617  -86.7544  230.2844 C   0  0  0  0  0  0  0  0  0  0  0  0
  -18.5627  -86.3689  230.5250 C   0  0  0  0  0  0  0  0  0  0  0  0
  -17.7323  -87.2103  231.1412 N   0  0  0  0  0  0  0  0  0  0  0  0
  -18.0641  -88.4344  231.5583 C   0  0  0  0  0  0  0  0  0  0  0  0
  -17.1624  -89.3124  232.2121 N   0  0  0  0  0  0  0  0  0  0  0  0
  -17.6542  -90.1670  233.2416 C   0  0  0  0  0  0  0  0  0  0  0  0
  -16.9961  -90.3036  234.4494 C   0  0  0  0  0  0  0  0  0  0  0  0
  -17.5328  -91.1441  235.3873 C   0  0  0  0  0  0  0  0  0  0  0  0
  -16.8359  -91.3015  236.6920 C   0  0  2  0  0  0  0  0  0  0  0  0
  -15.4159  -91.7201  236.4297 C   0  0  0  0  0  0  0  0  0  0  0  0
  -15.0869  -92.7011  237.5351 C   0  0  0  0  0  0  0  0  0  0  0  0
  -16.2754  -92.8056  238.3523 N   0  0  0  0  0  0  0  0  0  0  0  0
  -17.3735  -92.4882  237.4711 C   0  0  0  0  0  0  0  0  0  0  0  0
  -18.6732  -91.8213  235.1407 N   0  0  0  0  0  0  0  0  0  0  0  0
  -19.3247  -91.6948  233.9629 C   0  0  0  0  0  0  0  0  0  0  0  0
  -20.5266  -92.4097  233.7058 N   0  0  0  0  0  0  0  0  0  0  0  0
  -21.1626  -93.3183  234.6404 C   0  0  0  0  0  0  0  0  0  0  0  0
  -22.6311  -92.9038  234.4769 C   0  0  0  0  0  0  0  0  0  0  0  0
  -22.7333  -92.8429  232.9674 C   0  0  0  0  0  0  0  0  0  0  0  0
  -23.0310  -94.1228  232.5355 F   0  0  0  0  0  0  0  0  0  0  0  0
  -23.7177  -91.9968  232.5332 F   0  0  0  0  0  0  0  0  0  0  0  0
  -21.3561  -92.4058  232.5242 C   0  0  0  0  0  0  0  0  0  0  0  0
  -18.7943  -90.8777  233.0632 N   0  0  0  0  0  0  0  0  0  0  0  0
  -19.3606  -88.8434  231.3284 C   0  0  0  0  0  0  0  0  0  0  0  0
  -20.2622  -88.0069  230.6921 C   0  0  0  0  0  0  0  0  0  0  0  0
  1  2  1  0
  2  3  1  0
  2  4  1  0
  4  5  1  0
  5  6  2  0
  6  7  1  0
  7  8  2  0
  8  9  1  0
  9 10  2  0
 10 11  1  0
 11 12  1  0
 12 13  2  0
 13 14  1  0
 15 14  1  6
 15 16  1  0
 16 17  1  0
 17 18  1  0
 18 19  1  0
 14 20  2  0
 20 21  1  0
 21 22  1  0
 22 23  1  0
 23 24  1  0
 24 25  1  0
 25 26  1  0
 25 27  1  0
 25 28  1  0
 21 29  2  0
 10 30  1  0
 30 31  2  0
 31  4  1  0
 31  7  1  0
 29 12  1  0
 19 15  1  0
 28 22  1  0
M  END
$$$$
