
     RDKit          3D

 31 35  0  0  0  0  0  0  0  0999 V2000
  -23.6058  -89.9196  230.3383 C   0  0  0  0  0  0  0  0  0  0  0  0
  -22.6509  -89.3778  231.3861 C   0  0  0  0  0  0  0  0  0  0  0  0
  -23.4630  -88.5734  232.3771 C   0  0  0  0  0  0  0  0  0  0  0  0
  -21.7803  -88.4207  230.6871 N   0  0  0  0  0  0  0  0  0  0  0  0
  -22.0763  -87.7159  229.6120 N   0  0  0  0  0  0  0  0  0  0  0  0
  -21.0434  -86.9397  229.2402 C   0  0  0  0  0  0  0  0  0  0  0  0
  -20.0228  -87.1653  230.1377 C   0  0  0  0  0  0  0  0  0  0  0  0
  -18.7399  -86.6971  230.3078 C   0  0  0  0  0  0  0  0  0  0  0  0
  -18.0057  -87.1504  231.3242 N   0  0  0  0  0  0  0  0  0  0  0  0
  -18.4224  -88.0486  232.2198 C   0  0  0  0  0  0  0  0  0  0  0  0
  -17.6224  -88.5162  233.2935 N   0  0  0  0  0  0  0  0  0  0  0  0
  -17.9576  -89.7533  233.9171 C   0  0  0  0  0  0  0  0  0  0  0  0
  -17.1839  -90.2909  234.9286 C   0  0  0  0  0  0  0  0  0  0  0  0
  -17.5731  -91.4835  235.4768 C   0  0  0  0  0  0  0  0  0  0  0  0
  -16.7505  -92.0745  236.5662 C   0  0  2  0  0  0  0  0  0  0  0  0
  -15.3701  -92.3415  236.0338 C   0  0  0  0  0  0  0  0  0  0  0  0
  -14.9449  -93.6413  236.6837 C   0  0  0  0  0  0  0  0  0  0  0  0
  -16.0464  -94.0539  237.5249 N   0  0  0  0  0  0  0  0  0  0  0  0
  -17.2231  -93.4715  236.9258 C   0  0  0  0  0  0  0  0  0  0  0  0
  -18.6815  -92.1180  235.0425 N   0  0  0  0  0  0  0  0  0  0  0  0
  -19.4451  -91.6010  234.0539 C   0  0  0  0  0  0  0  0  0  0  0  0
  -20.6130  -92.2718  233.5983 N   0  0  0  0  0  0  0  0  0  0  0  0
  -21.2095  -93.4237  234.2471 C   0  0  0  0  0  0  0  0  0  0  0  0
  -22.6948  -93.0439  234.1796 C   0  0  0  0  0  0  0  0  0  0  0  0
  -22.7964  -92.5859  232.7399 C   0  0  0  0  0  0  0  0  0  0  0  0
  -23.0352  -93.7152  231.9777 F   0  0  0  0  0  0  0  0  0  0  0  0
  -23.8170  -91.6975  232.5336 F   0  0  0  0  0  0  0  0  0  0  0  0
  -21.4394  -91.9876  232.4490 C   0  0  0  0  0  0  0  0  0  0  0  0
  -19.0572  -90.4455  233.5316 N   0  0  0  0  0  0  0  0  0  0  0  0
  -19.7047  -88.5326  232.0701 C   0  0  0  0  0  0  0  0  0  0  0  0
  -20.5079  -88.0938  231.0309 C   0  0  0  0  0  0  0  0  0  0  0  0
  1  2  1  0
  2  3  1  0
  2  4  1  0
  4  5  1  0
  5  6  2  0
  6  7  1  0
  7  8  2  0
  8  9  1  0
  9 10  2  0
 10 11  1  0
 11 12  1  0
 12 13  2  0
 13 14  1  0
 15 14  1  6
 15 16  1  0
 16 17  1  0
 17 18  1  0
 18 19  1  0
 14 20  2  0
 20 21  1  0
 21 22  1  0
 22 23  1  0
 23 24  1  0
 24 25  1  0
 25 26  1  0
 25 27  1  0
 25 28  1  0
 21 29  2  0
 10 30  1  0
 30 31  2  0
 31  4  1  0
 31  7  1  0
 29 12  1  0
 19 15  1  0
 28 22  1  0
M  END
$$$$
