
     RDKit          3D

 31 35  0  0  0  0  0  0  0  0999 V2000
  -23.5732  -89.2925  230.2243 C   0  0  0  0  0  0  0  0  0  0  0  0
  -22.5288  -89.0475  231.2978 C   0  0  0  0  0  0  0  0  0  0  0  0
  -23.2377  -88.4840  232.5097 C   0  0  0  0  0  0  0  0  0  0  0  0
  -21.6630  -87.9748  230.7858 N   0  0  0  0  0  0  0  0  0  0  0  0
  -22.0421  -86.8839  230.1480 N   0  0  0  0  0  0  0  0  0  0  0  0
  -20.9853  -86.1187  229.8234 C   0  0  0  0  0  0  0  0  0  0  0  0
  -19.8595  -86.7651  230.2848 C   0  0  0  0  0  0  0  0  0  0  0  0
  -18.5062  -86.5153  230.2724 C   0  0  0  0  0  0  0  0  0  0  0  0
  -17.6724  -87.3913  230.8336 N   0  0  0  0  0  0  0  0  0  0  0  0
  -18.0506  -88.5266  231.4256 C   0  0  0  0  0  0  0  0  0  0  0  0
  -17.1443  -89.4439  232.0162 N   0  0  0  0  0  0  0  0  0  0  0  0
  -17.6130  -90.3139  233.0434 C   0  0  0  0  0  0  0  0  0  0  0  0
  -16.9612  -90.4227  234.2576 C   0  0  0  0  0  0  0  0  0  0  0  0
  -17.4745  -91.2806  235.1928 C   0  0  0  0  0  0  0  0  0  0  0  0
  -16.7841  -91.4086  236.5042 C   0  0  2  0  0  0  0  0  0  0  0  0
  -15.3624  -91.8316  236.2583 C   0  0  0  0  0  0  0  0  0  0  0  0
  -15.0382  -92.7877  237.3868 C   0  0  0  0  0  0  0  0  0  0  0  0
  -16.2307  -92.8753  238.2000 N   0  0  0  0  0  0  0  0  0  0  0  0
  -17.3246  -92.5784  237.3065 C   0  0  0  0  0  0  0  0  0  0  0  0
  -18.5863  -92.0009  234.9378 N   0  0  0  0  0  0  0  0  0  0  0  0
  -19.2312  -91.9019  233.7538 C   0  0  0  0  0  0  0  0  0  0  0  0
  -20.4029  -92.6621  233.4878 N   0  0  0  0  0  0  0  0  0  0  0  0
  -20.9724  -93.6442  234.3904 C   0  0  0  0  0  0  0  0  0  0  0  0
  -22.4626  -93.2953  234.2782 C   0  0  0  0  0  0  0  0  0  0  0  0
  -22.6030  -93.1680  232.7760 C   0  0  0  0  0  0  0  0  0  0  0  0
  -22.8487  -94.4391  232.2889 F   0  0  0  0  0  0  0  0  0  0  0  0
  -23.6370  -92.3519  232.4041 F   0  0  0  0  0  0  0  0  0  0  0  0
  -21.2592  -92.6431  232.3255 C   0  0  0  0  0  0  0  0  0  0  0  0
  -18.7238  -91.0675  232.8567 N   0  0  0  0  0  0  0  0  0  0  0  0
  -19.4019  -88.7989  231.4506 C   0  0  0  0  0  0  0  0  0  0  0  0
  -20.3095  -87.9212  230.8817 C   0  0  0  0  0  0  0  0  0  0  0  0
  1  2  1  0
  2  3  1  0
  2  4  1  0
  4  5  1  0
  5  6  2  0
  6  7  1  0
  7  8  2  0
  8  9  1  0
  9 10  2  0
 10 11  1  0
 11 12  1  0
 12 13  2  0
 13 14  1  0
 15 14  1  6
 15 16  1  0
 16 17  1  0
 17 18  1  0
 18 19  1  0
 14 20  2  0
 20 21  1  0
 21 22  1  0
 22 23  1  0
 23 24  1  0
 24 25  1  0
 25 26  1  0
 25 27  1  0
 25 28  1  0
 21 29  2  0
 10 30  1  0
 30 31  2  0
 31  4  1  0
 31  7  1  0
 29 12  1  0
 19 15  1  0
 28 22  1  0
M  END
$$$$
