
     RDKit          3D

 31 35  0  0  0  0  0  0  0  0999 V2000
  -23.5472  -89.0790  230.4542 C   0  0  0  0  0  0  0  0  0  0  0  0
  -22.4655  -88.9207  231.5069 C   0  0  0  0  0  0  0  0  0  0  0  0
  -23.1223  -88.4034  232.7677 C   0  0  0  0  0  0  0  0  0  0  0  0
  -21.5838  -87.8465  231.0259 N   0  0  0  0  0  0  0  0  0  0  0  0
  -21.9433  -86.7503  230.3860 N   0  0  0  0  0  0  0  0  0  0  0  0
  -20.8765  -85.9854  230.0953 C   0  0  0  0  0  0  0  0  0  0  0  0
  -19.7649  -86.6377  230.5822 C   0  0  0  0  0  0  0  0  0  0  0  0
  -18.4112  -86.3911  230.6078 C   0  0  0  0  0  0  0  0  0  0  0  0
  -17.5948  -87.2730  231.1849 N   0  0  0  0  0  0  0  0  0  0  0  0
  -17.9912  -88.4116  231.7585 C   0  0  0  0  0  0  0  0  0  0  0  0
  -17.1031  -89.3351  232.3667 N   0  0  0  0  0  0  0  0  0  0  0  0
  -17.6222  -90.2837  233.2954 C   0  0  0  0  0  0  0  0  0  0  0  0
  -17.0324  -90.4925  234.5280 C   0  0  0  0  0  0  0  0  0  0  0  0
  -17.5914  -91.4214  235.3638 C   0  0  0  0  0  0  0  0  0  0  0  0
  -16.9678  -91.6572  236.6935 C   0  0  2  0  0  0  0  0  0  0  0  0
  -15.5274  -92.0357  236.4874 C   0  0  0  0  0  0  0  0  0  0  0  0
  -15.2441  -93.0849  237.5417 C   0  0  0  0  0  0  0  0  0  0  0  0
  -16.4754  -93.2626  238.2789 N   0  0  0  0  0  0  0  0  0  0  0  0
  -17.5268  -92.9022  237.3582 C   0  0  0  0  0  0  0  0  0  0  0  0
  -18.6883  -92.1152  234.9958 N   0  0  0  0  0  0  0  0  0  0  0  0
  -19.2729  -91.9187  233.7927 C   0  0  0  0  0  0  0  0  0  0  0  0
  -20.4290  -92.6512  233.4075 N   0  0  0  0  0  0  0  0  0  0  0  0
  -21.1063  -93.6240  234.2432 C   0  0  0  0  0  0  0  0  0  0  0  0
  -22.5702  -93.2411  233.9869 C   0  0  0  0  0  0  0  0  0  0  0  0
  -22.5586  -93.1044  232.4789 C   0  0  0  0  0  0  0  0  0  0  0  0
  -22.7829  -94.3676  231.9619 F   0  0  0  0  0  0  0  0  0  0  0  0
  -23.5326  -92.2635  232.0122 F   0  0  0  0  0  0  0  0  0  0  0  0
  -21.1657  -92.6080  232.1666 C   0  0  0  0  0  0  0  0  0  0  0  0
  -18.7216  -91.0163  232.9927 N   0  0  0  0  0  0  0  0  0  0  0  0
  -19.3434  -88.6807  231.7454 C   0  0  0  0  0  0  0  0  0  0  0  0
  -20.2333  -87.7969  231.1585 C   0  0  0  0  0  0  0  0  0  0  0  0
  1  2  1  0
  2  3  1  0
  2  4  1  0
  4  5  1  0
  5  6  2  0
  6  7  1  0
  7  8  2  0
  8  9  1  0
  9 10  2  0
 10 11  1  0
 11 12  1  0
 12 13  2  0
 13 14  1  0
 15 14  1  6
 15 16  1  0
 16 17  1  0
 17 18  1  0
 18 19  1  0
 14 20  2  0
 20 21  1  0
 21 22  1  0
 22 23  1  0
 23 24  1  0
 24 25  1  0
 25 26  1  0
 25 27  1  0
 25 28  1  0
 21 29  2  0
 10 30  1  0
 30 31  2  0
 31  4  1  0
 31  7  1  0
 29 12  1  0
 19 15  1  0
 28 22  1  0
M  END
$$$$
