
     RDKit          3D

 31 35  0  0  0  0  0  0  0  0999 V2000
  -23.4056  -89.7395  229.7508 C   0  0  0  0  0  0  0  0  0  0  0  0
  -22.4627  -89.5006  230.9157 C   0  0  0  0  0  0  0  0  0  0  0  0
  -23.3018  -89.1312  232.1191 C   0  0  0  0  0  0  0  0  0  0  0  0
  -21.6825  -88.3033  230.5687 N   0  0  0  0  0  0  0  0  0  0  0  0
  -22.1085  -87.2391  229.9158 N   0  0  0  0  0  0  0  0  0  0  0  0
  -21.1270  -86.3315  229.7727 C   0  0  0  0  0  0  0  0  0  0  0  0
  -20.0022  -86.8524  230.3741 C   0  0  0  0  0  0  0  0  0  0  0  0
  -18.7056  -86.4333  230.5674 C   0  0  0  0  0  0  0  0  0  0  0  0
  -17.8511  -87.2235  231.2178 N   0  0  0  0  0  0  0  0  0  0  0  0
  -18.1557  -88.4252  231.7133 C   0  0  0  0  0  0  0  0  0  0  0  0
  -17.2287  -89.2485  232.4021 N   0  0  0  0  0  0  0  0  0  0  0  0
  -17.7181  -90.2129  233.3307 C   0  0  0  0  0  0  0  0  0  0  0  0
  -17.0435  -90.5021  234.5020 C   0  0  0  0  0  0  0  0  0  0  0  0
  -17.5790  -91.4410  235.3422 C   0  0  0  0  0  0  0  0  0  0  0  0
  -16.8644  -91.7630  236.6064 C   0  0  2  0  0  0  0  0  0  0  0  0
  -15.5388  -92.3837  236.2633 C   0  0  0  0  0  0  0  0  0  0  0  0
  -15.3239  -93.4527  237.3138 C   0  0  0  0  0  0  0  0  0  0  0  0
  -16.4810  -93.4091  238.1801 N   0  0  0  0  0  0  0  0  0  0  0  0
  -17.5498  -92.8864  237.3632 C   0  0  0  0  0  0  0  0  0  0  0  0
  -18.7338  -92.0678  235.0364 N   0  0  0  0  0  0  0  0  0  0  0  0
  -19.4014  -91.7924  233.8936 C   0  0  0  0  0  0  0  0  0  0  0  0
  -20.6185  -92.4544  233.5740 N   0  0  0  0  0  0  0  0  0  0  0  0
  -21.2687  -93.4390  234.4174 C   0  0  0  0  0  0  0  0  0  0  0  0
  -22.7293  -92.9816  234.3051 C   0  0  0  0  0  0  0  0  0  0  0  0
  -22.8366  -92.7686  232.8098 C   0  0  0  0  0  0  0  0  0  0  0  0
  -23.1617  -93.9930  232.2545 F   0  0  0  0  0  0  0  0  0  0  0  0
  -23.8056  -91.8644  232.4680 F   0  0  0  0  0  0  0  0  0  0  0  0
  -21.4528  -92.3165  232.4038 C   0  0  0  0  0  0  0  0  0  0  0  0
  -18.8721  -90.8811  233.0886 N   0  0  0  0  0  0  0  0  0  0  0  0
  -19.4492  -88.8669  231.5320 C   0  0  0  0  0  0  0  0  0  0  0  0
  -20.3752  -88.0840  230.8633 C   0  0  0  0  0  0  0  0  0  0  0  0
  1  2  1  0
  2  3  1  0
  2  4  1  0
  4  5  1  0
  5  6  2  0
  6  7  1  0
  7  8  2  0
  8  9  1  0
  9 10  2  0
 10 11  1  0
 11 12  1  0
 12 13  2  0
 13 14  1  0
 15 14  1  6
 15 16  1  0
 16 17  1  0
 17 18  1  0
 18 19  1  0
 14 20  2  0
 20 21  1  0
 21 22  1  0
 22 23  1  0
 23 24  1  0
 24 25  1  0
 25 26  1  0
 25 27  1  0
 25 28  1  0
 21 29  2  0
 10 30  1  0
 30 31  2  0
 31  4  1  0
 31  7  1  0
 29 12  1  0
 19 15  1  0
 28 22  1  0
M  END
$$$$
