
     RDKit          3D

 31 35  0  0  0  0  0  0  0  0999 V2000
  -23.0902  -89.7340  229.1665 C   0  0  0  0  0  0  0  0  0  0  0  0
  -22.3735  -89.5842  230.4958 C   0  0  0  0  0  0  0  0  0  0  0  0
  -23.4262  -89.4839  231.5778 C   0  0  0  0  0  0  0  0  0  0  0  0
  -21.6987  -88.2784  230.4493 N   0  0  0  0  0  0  0  0  0  0  0  0
  -22.1823  -87.1510  229.9640 N   0  0  0  0  0  0  0  0  0  0  0  0
  -21.2931  -86.1496  230.0833 C   0  0  0  0  0  0  0  0  0  0  0  0
  -20.1697  -86.6741  230.6840 C   0  0  0  0  0  0  0  0  0  0  0  0
  -18.9430  -86.1867  231.0734 C   0  0  0  0  0  0  0  0  0  0  0  0
  -18.0631  -87.0078  231.6470 N   0  0  0  0  0  0  0  0  0  0  0  0
  -18.2774  -88.3041  231.8836 C   0  0  0  0  0  0  0  0  0  0  0  0
  -17.3252  -89.1586  232.4957 N   0  0  0  0  0  0  0  0  0  0  0  0
  -17.7765  -90.1493  233.4157 C   0  0  0  0  0  0  0  0  0  0  0  0
  -17.0462  -90.4835  234.5408 C   0  0  0  0  0  0  0  0  0  0  0  0
  -17.5479  -91.4454  235.3757 C   0  0  0  0  0  0  0  0  0  0  0  0
  -16.7732  -91.8158  236.5904 C   0  0  2  0  0  0  0  0  0  0  0  0
  -15.4188  -92.3093  236.1634 C   0  0  0  0  0  0  0  0  0  0  0  0
  -15.0968  -93.4412  237.1162 C   0  0  0  0  0  0  0  0  0  0  0  0
  -16.2264  -93.5513  238.0123 N   0  0  0  0  0  0  0  0  0  0  0  0
  -17.3543  -93.0431  237.2690 C   0  0  0  0  0  0  0  0  0  0  0  0
  -18.7231  -92.0517  235.1089 N   0  0  0  0  0  0  0  0  0  0  0  0
  -19.4451  -91.7324  234.0115 C   0  0  0  0  0  0  0  0  0  0  0  0
  -20.6836  -92.3728  233.7330 N   0  0  0  0  0  0  0  0  0  0  0  0
  -21.2967  -93.3847  234.5718 C   0  0  0  0  0  0  0  0  0  0  0  0
  -22.7570  -92.9130  234.5560 C   0  0  0  0  0  0  0  0  0  0  0  0
  -22.9422  -92.6415  233.0779 C   0  0  0  0  0  0  0  0  0  0  0  0
  -23.3079  -93.8412  232.4946 F   0  0  0  0  0  0  0  0  0  0  0  0
  -23.9199  -91.7178  232.8237 F   0  0  0  0  0  0  0  0  0  0  0  0
  -21.5781  -92.1839  232.6155 C   0  0  0  0  0  0  0  0  0  0  0  0
  -18.9481  -90.7992  233.2111 N   0  0  0  0  0  0  0  0  0  0  0  0
  -19.4996  -88.8157  231.5021 C   0  0  0  0  0  0  0  0  0  0  0  0
  -20.4482  -88.0046  230.9023 C   0  0  0  0  0  0  0  0  0  0  0  0
  1  2  1  0
  2  3  1  0
  2  4  1  0
  4  5  1  0
  5  6  2  0
  6  7  1  0
  7  8  2  0
  8  9  1  0
  9 10  2  0
 10 11  1  0
 11 12  1  0
 12 13  2  0
 13 14  1  0
 15 14  1  6
 15 16  1  0
 16 17  1  0
 17 18  1  0
 18 19  1  0
 14 20  2  0
 20 21  1  0
 21 22  1  0
 22 23  1  0
 23 24  1  0
 24 25  1  0
 25 26  1  0
 25 27  1  0
 25 28  1  0
 21 29  2  0
 10 30  1  0
 30 31  2  0
 31  4  1  0
 31  7  1  0
 29 12  1  0
 19 15  1  0
 28 22  1  0
M  END
$$$$
