
     RDKit          3D

 31 35  0  0  0  0  0  0  0  0999 V2000
  -38.9878 -111.7743  227.2295 C   0  0  0  0  0  0  0  0  0  0  0  0
  -39.6741 -112.5284  226.1055 C   0  0  0  0  0  0  0  0  0  0  0  0
  -41.0692 -111.9627  225.9561 C   0  0  0  0  0  0  0  0  0  0  0  0
  -39.8341 -113.9107  226.5812 N   0  0  0  0  0  0  0  0  0  0  0  0
  -39.9438 -114.3125  227.8330 N   0  0  0  0  0  0  0  0  0  0  0  0
  -40.0763 -115.6485  227.9047 C   0  0  0  0  0  0  0  0  0  0  0  0
  -40.0492 -116.1287  226.6137 C   0  0  0  0  0  0  0  0  0  0  0  0
  -40.1348 -117.3684  226.0224 C   0  0  0  0  0  0  0  0  0  0  0  0
  -40.0689 -117.4677  224.6945 N   0  0  0  0  0  0  0  0  0  0  0  0
  -39.9223 -116.4337  223.8628 C   0  0  0  0  0  0  0  0  0  0  0  0
  -39.8547 -116.5641  222.4521 N   0  0  0  0  0  0  0  0  0  0  0  0
  -39.5899 -115.4069  221.6631 C   0  0  0  0  0  0  0  0  0  0  0  0
  -39.6757 -115.4321  220.2837 C   0  0  0  0  0  0  0  0  0  0  0  0
  -39.4062 -114.2785  219.5975 C   0  0  0  0  0  0  0  0  0  0  0  0
  -39.4943 -114.2901  218.1127 C   0  0  2  0  0  0  0  0  0  0  0  0
  -38.5166 -115.3015  217.5821 C   0  0  0  0  0  0  0  0  0  0  0  0
  -37.9641 -114.6840  216.3148 C   0  0  0  0  0  0  0  0  0  0  0  0
  -38.6138 -113.4000  216.1721 N   0  0  0  0  0  0  0  0  0  0  0  0
  -38.9660 -112.9993  217.5132 C   0  0  0  0  0  0  0  0  0  0  0  0
  -39.0660 -113.1471  220.2487 N   0  0  0  0  0  0  0  0  0  0  0  0
  -38.9793 -113.1117  221.5973 C   0  0  0  0  0  0  0  0  0  0  0  0
  -38.6207 -111.9177  222.2810 N   0  0  0  0  0  0  0  0  0  0  0  0
  -38.4141 -110.6316  221.6432 C   0  0  0  0  0  0  0  0  0  0  0  0
  -39.1462 -109.7106  222.6287 C   0  0  0  0  0  0  0  0  0  0  0  0
  -38.6097 -110.2338  223.9444 C   0  0  0  0  0  0  0  0  0  0  0  0
  -37.4206 -109.5687  224.1833 F   0  0  0  0  0  0  0  0  0  0  0  0
  -39.4561 -110.0033  224.9951 F   0  0  0  0  0  0  0  0  0  0  0  0
  -38.3889 -111.7071  223.6904 C   0  0  0  0  0  0  0  0  0  0  0  0
  -39.2427 -114.2355  222.2499 N   0  0  0  0  0  0  0  0  0  0  0  0
  -39.8342 -115.1809  224.4318 C   0  0  0  0  0  0  0  0  0  0  0  0
  -39.8971 -115.0240  225.8063 C   0  0  0  0  0  0  0  0  0  0  0  0
  1  2  1  0
  2  3  1  0
  2  4  1  0
  4  5  1  0
  5  6  2  0
  6  7  1  0
  7  8  2  0
  8  9  1  0
  9 10  2  0
 10 11  1  0
 11 12  1  0
 12 13  2  0
 13 14  1  0
 15 14  1  1
 15 16  1  0
 16 17  1  0
 17 18  1  0
 18 19  1  0
 14 20  2  0
 20 21  1  0
 21 22  1  0
 22 23  1  0
 23 24  1  0
 24 25  1  0
 25 26  1  0
 25 27  1  0
 25 28  1  0
 21 29  2  0
 10 30  1  0
 30 31  2  0
 31  4  1  0
 31  7  1  0
 29 12  1  0
 19 15  1  0
 28 22  1  0
M  END
$$$$
