
     RDKit          3D

 31 35  0  0  0  0  0  0  0  0999 V2000
  -23.2257  -89.6235  229.2280 C   0  0  0  0  0  0  0  0  0  0  0  0
  -22.3797  -89.5104  230.4829 C   0  0  0  0  0  0  0  0  0  0  0  0
  -23.3172  -89.3168  231.6543 C   0  0  0  0  0  0  0  0  0  0  0  0
  -21.6176  -88.2599  230.3484 N   0  0  0  0  0  0  0  0  0  0  0  0
  -22.0298  -87.1334  229.7995 N   0  0  0  0  0  0  0  0  0  0  0  0
  -21.0723  -86.1908  229.8471 C   0  0  0  0  0  0  0  0  0  0  0  0
  -19.9787  -86.7545  230.4671 C   0  0  0  0  0  0  0  0  0  0  0  0
  -18.7157  -86.3306  230.8124 C   0  0  0  0  0  0  0  0  0  0  0  0
  -17.8858  -87.1743  231.4263 N   0  0  0  0  0  0  0  0  0  0  0  0
  -18.1851  -88.4358  231.7448 C   0  0  0  0  0  0  0  0  0  0  0  0
  -17.2847  -89.3154  232.3984 N   0  0  0  0  0  0  0  0  0  0  0  0
  -17.7921  -90.2276  233.3691 C   0  0  0  0  0  0  0  0  0  0  0  0
  -17.1221  -90.4777  234.5521 C   0  0  0  0  0  0  0  0  0  0  0  0
  -17.6752  -91.3674  235.4333 C   0  0  0  0  0  0  0  0  0  0  0  0
  -16.9658  -91.6468  236.7105 C   0  0  2  0  0  0  0  0  0  0  0  0
  -15.5504  -92.0445  236.3959 C   0  0  0  0  0  0  0  0  0  0  0  0
  -15.2146  -93.1244  237.4027 C   0  0  0  0  0  0  0  0  0  0  0  0
  -16.3952  -93.2996  238.2192 N   0  0  0  0  0  0  0  0  0  0  0  0
  -17.5007  -92.8985  237.3827 C   0  0  0  0  0  0  0  0  0  0  0  0
  -18.8425  -91.9841  235.1561 N   0  0  0  0  0  0  0  0  0  0  0  0
  -19.5058  -91.7467  234.0022 C   0  0  0  0  0  0  0  0  0  0  0  0
  -20.7361  -92.3979  233.7127 N   0  0  0  0  0  0  0  0  0  0  0  0
  -21.4204  -93.3071  234.6120 C   0  0  0  0  0  0  0  0  0  0  0  0
  -22.8675  -92.8219  234.4514 C   0  0  0  0  0  0  0  0  0  0  0  0
  -22.9533  -92.7071  232.9440 C   0  0  0  0  0  0  0  0  0  0  0  0
  -23.3041  -93.9576  232.4679 F   0  0  0  0  0  0  0  0  0  0  0  0
  -23.8950  -91.8039  232.5306 F   0  0  0  0  0  0  0  0  0  0  0  0
  -21.5541  -92.3182  232.5257 C   0  0  0  0  0  0  0  0  0  0  0  0
  -18.9594  -90.8829  233.1573 N   0  0  0  0  0  0  0  0  0  0  0  0
  -19.4451  -88.8836  231.4089 C   0  0  0  0  0  0  0  0  0  0  0  0
  -20.3446  -88.0466  230.7702 C   0  0  0  0  0  0  0  0  0  0  0  0
  1  2  1  0
  2  3  1  0
  2  4  1  0
  4  5  1  0
  5  6  2  0
  6  7  1  0
  7  8  2  0
  8  9  1  0
  9 10  2  0
 10 11  1  0
 11 12  1  0
 12 13  2  0
 13 14  1  0
 15 14  1  6
 15 16  1  0
 16 17  1  0
 17 18  1  0
 18 19  1  0
 14 20  2  0
 20 21  1  0
 21 22  1  0
 22 23  1  0
 23 24  1  0
 24 25  1  0
 25 26  1  0
 25 27  1  0
 25 28  1  0
 21 29  2  0
 10 30  1  0
 30 31  2  0
 31  4  1  0
 31  7  1  0
 29 12  1  0
 19 15  1  0
 28 22  1  0
M  END
$$$$
