
     RDKit          3D

 31 35  0  0  0  0  0  0  0  0999 V2000
  -23.3578  -89.9162  229.6123 C   0  0  0  0  0  0  0  0  0  0  0  0
  -22.4523  -89.6633  230.8036 C   0  0  0  0  0  0  0  0  0  0  0  0
  -23.3321  -89.3271  231.9875 C   0  0  0  0  0  0  0  0  0  0  0  0
  -21.6954  -88.4426  230.4874 N   0  0  0  0  0  0  0  0  0  0  0  0
  -22.1456  -87.3653  229.8734 N   0  0  0  0  0  0  0  0  0  0  0  0
  -21.1806  -86.4375  229.7496 C   0  0  0  0  0  0  0  0  0  0  0  0
  -20.0411  -86.9585  230.3226 C   0  0  0  0  0  0  0  0  0  0  0  0
  -18.7496  -86.5244  230.5163 C   0  0  0  0  0  0  0  0  0  0  0  0
  -17.8755  -87.3206  231.1322 N   0  0  0  0  0  0  0  0  0  0  0  0
  -18.1552  -88.5424  231.5920 C   0  0  0  0  0  0  0  0  0  0  0  0
  -17.2077  -89.3718  232.2446 N   0  0  0  0  0  0  0  0  0  0  0  0
  -17.6604  -90.2898  233.2366 C   0  0  0  0  0  0  0  0  0  0  0  0
  -16.9859  -90.4606  234.4311 C   0  0  0  0  0  0  0  0  0  0  0  0
  -17.4849  -91.3618  235.3328 C   0  0  0  0  0  0  0  0  0  0  0  0
  -16.7700  -91.5565  236.6226 C   0  0  2  0  0  0  0  0  0  0  0  0
  -15.3230  -91.8416  236.3306 C   0  0  0  0  0  0  0  0  0  0  0  0
  -14.9110  -92.8701  237.3627 C   0  0  0  0  0  0  0  0  0  0  0  0
  -16.0827  -93.1265  238.1705 N   0  0  0  0  0  0  0  0  0  0  0  0
  -17.2076  -92.8348  237.3147 C   0  0  0  0  0  0  0  0  0  0  0  0
  -18.6044  -92.0649  235.0641 N   0  0  0  0  0  0  0  0  0  0  0  0
  -19.2715  -91.9055  233.8992 C   0  0  0  0  0  0  0  0  0  0  0  0
  -20.4513  -92.6478  233.6188 N   0  0  0  0  0  0  0  0  0  0  0  0
  -21.0870  -93.5676  234.5425 C   0  0  0  0  0  0  0  0  0  0  0  0
  -22.5605  -93.1866  234.3462 C   0  0  0  0  0  0  0  0  0  0  0  0
  -22.6315  -93.1324  232.8346 C   0  0  0  0  0  0  0  0  0  0  0  0
  -22.8912  -94.4199  232.4008 F   0  0  0  0  0  0  0  0  0  0  0  0
  -23.6249  -92.3098  232.3764 F   0  0  0  0  0  0  0  0  0  0  0  0
  -21.2551  -92.6659  232.4196 C   0  0  0  0  0  0  0  0  0  0  0  0
  -18.7778  -91.0296  233.0345 N   0  0  0  0  0  0  0  0  0  0  0  0
  -19.4432  -88.9995  231.4096 C   0  0  0  0  0  0  0  0  0  0  0  0
  -20.3888  -88.2111  230.7757 C   0  0  0  0  0  0  0  0  0  0  0  0
  1  2  1  0
  2  3  1  0
  2  4  1  0
  4  5  1  0
  5  6  2  0
  6  7  1  0
  7  8  2  0
  8  9  1  0
  9 10  2  0
 10 11  1  0
 11 12  1  0
 12 13  2  0
 13 14  1  0
 15 14  1  6
 15 16  1  0
 16 17  1  0
 17 18  1  0
 18 19  1  0
 14 20  2  0
 20 21  1  0
 21 22  1  0
 22 23  1  0
 23 24  1  0
 24 25  1  0
 25 26  1  0
 25 27  1  0
 25 28  1  0
 21 29  2  0
 10 30  1  0
 30 31  2  0
 31  4  1  0
 31  7  1  0
 29 12  1  0
 19 15  1  0
 28 22  1  0
M  END
$$$$
