
     RDKit          3D

 31 35  0  0  0  0  0  0  0  0999 V2000
  -23.6283  -89.3749  230.3767 C   0  0  0  0  0  0  0  0  0  0  0  0
  -22.6547  -89.1427  231.5175 C   0  0  0  0  0  0  0  0  0  0  0  0
  -23.4526  -88.6812  232.7171 C   0  0  0  0  0  0  0  0  0  0  0  0
  -21.8168  -88.0043  231.1118 N   0  0  0  0  0  0  0  0  0  0  0  0
  -22.2211  -86.8787  230.5552 N   0  0  0  0  0  0  0  0  0  0  0  0
  -21.1853  -86.0555  230.3159 C   0  0  0  0  0  0  0  0  0  0  0  0
  -20.0469  -86.6995  230.7487 C   0  0  0  0  0  0  0  0  0  0  0  0
  -18.7031  -86.4052  230.7858 C   0  0  0  0  0  0  0  0  0  0  0  0
  -17.8504  -87.2957  231.2932 N   0  0  0  0  0  0  0  0  0  0  0  0
  -18.2004  -88.4869  231.7842 C   0  0  0  0  0  0  0  0  0  0  0  0
  -17.2744  -89.4185  232.3193 N   0  0  0  0  0  0  0  0  0  0  0  0
  -17.7351  -90.3919  233.2531 C   0  0  0  0  0  0  0  0  0  0  0  0
  -17.0956  -90.6010  234.4606 C   0  0  0  0  0  0  0  0  0  0  0  0
  -17.6000  -91.5547  235.3033 C   0  0  0  0  0  0  0  0  0  0  0  0
  -16.9226  -91.7911  236.6063 C   0  0  2  0  0  0  0  0  0  0  0  0
  -15.5001  -92.1988  236.3403 C   0  0  0  0  0  0  0  0  0  0  0  0
  -15.1899  -93.2443  237.3906 C   0  0  0  0  0  0  0  0  0  0  0  0
  -16.3905  -93.3923  238.1831 N   0  0  0  0  0  0  0  0  0  0  0  0
  -17.4748  -93.0197  237.3065 C   0  0  0  0  0  0  0  0  0  0  0  0
  -18.6916  -92.2718  234.9657 N   0  0  0  0  0  0  0  0  0  0  0  0
  -19.3245  -92.0752  233.7873 C   0  0  0  0  0  0  0  0  0  0  0  0
  -20.4750  -92.8324  233.4342 N   0  0  0  0  0  0  0  0  0  0  0  0
  -21.1197  -93.8048  234.2957 C   0  0  0  0  0  0  0  0  0  0  0  0
  -22.5944  -93.4502  234.0621 C   0  0  0  0  0  0  0  0  0  0  0  0
  -22.6135  -93.3343  232.5524 C   0  0  0  0  0  0  0  0  0  0  0  0
  -22.8258  -94.6082  232.0570 F   0  0  0  0  0  0  0  0  0  0  0  0
  -23.6103  -92.5166  232.0929 F   0  0  0  0  0  0  0  0  0  0  0  0
  -21.2354  -92.8189  232.2070 C   0  0  0  0  0  0  0  0  0  0  0  0
  -18.8258  -91.1487  232.9803 N   0  0  0  0  0  0  0  0  0  0  0  0
  -19.5418  -88.8046  231.7579 C   0  0  0  0  0  0  0  0  0  0  0  0
  -20.4680  -87.9142  231.2413 C   0  0  0  0  0  0  0  0  0  0  0  0
  1  2  1  0
  2  3  1  0
  2  4  1  0
  4  5  1  0
  5  6  2  0
  6  7  1  0
  7  8  2  0
  8  9  1  0
  9 10  2  0
 10 11  1  0
 11 12  1  0
 12 13  2  0
 13 14  1  0
 15 14  1  6
 15 16  1  0
 16 17  1  0
 17 18  1  0
 18 19  1  0
 14 20  2  0
 20 21  1  0
 21 22  1  0
 22 23  1  0
 23 24  1  0
 24 25  1  0
 25 26  1  0
 25 27  1  0
 25 28  1  0
 21 29  2  0
 10 30  1  0
 30 31  2  0
 31  4  1  0
 31  7  1  0
 29 12  1  0
 19 15  1  0
 28 22  1  0
M  END
$$$$
