
     RDKit          3D

 31 35  0  0  0  0  0  0  0  0999 V2000
  -39.9090 -112.0178  227.6254 C   0  0  0  0  0  0  0  0  0  0  0  0
  -40.3009 -112.6433  226.2993 C   0  0  0  0  0  0  0  0  0  0  0  0
  -41.5927 -111.9972  225.8493 C   0  0  0  0  0  0  0  0  0  0  0  0
  -40.6181 -114.0494  226.5908 N   0  0  0  0  0  0  0  0  0  0  0  0
  -41.2073 -114.5234  227.6718 N   0  0  0  0  0  0  0  0  0  0  0  0
  -41.3406 -115.8597  227.6062 C   0  0  0  0  0  0  0  0  0  0  0  0
  -40.8007 -116.2627  226.4045 C   0  0  0  0  0  0  0  0  0  0  0  0
  -40.6307 -117.4641  225.7551 C   0  0  0  0  0  0  0  0  0  0  0  0
  -40.0456 -117.4852  224.5573 N   0  0  0  0  0  0  0  0  0  0  0  0
  -39.5959 -116.4054  223.9135 C   0  0  0  0  0  0  0  0  0  0  0  0
  -38.9761 -116.4528  222.6388 N   0  0  0  0  0  0  0  0  0  0  0  0
  -39.0103 -115.2932  221.8104 C   0  0  0  0  0  0  0  0  0  0  0  0
  -39.3704 -115.3621  220.4776 C   0  0  0  0  0  0  0  0  0  0  0  0
  -39.3787 -114.2032  219.7489 C   0  0  0  0  0  0  0  0  0  0  0  0
  -39.7640 -114.2614  218.3133 C   0  0  2  0  0  0  0  0  0  0  0  0
  -38.8625 -115.2407  217.6142 C   0  0  0  0  0  0  0  0  0  0  0  0
  -38.6099 -114.6346  216.2499 C   0  0  0  0  0  0  0  0  0  0  0  0
  -39.3405 -113.3870  216.2183 N   0  0  0  0  0  0  0  0  0  0  0  0
  -39.4350 -112.9651  217.5952 C   0  0  0  0  0  0  0  0  0  0  0  0
  -39.0447 -113.0251  220.3149 N   0  0  0  0  0  0  0  0  0  0  0  0
  -38.6910 -112.9468  221.6174 C   0  0  0  0  0  0  0  0  0  0  0  0
  -38.3396 -111.7037  222.2115 N   0  0  0  0  0  0  0  0  0  0  0  0
  -38.3737 -110.4240  221.5297 C   0  0  0  0  0  0  0  0  0  0  0  0
  -39.0125 -109.5467  222.6146 C   0  0  0  0  0  0  0  0  0  0  0  0
  -38.2086 -109.9758  223.8239 C   0  0  0  0  0  0  0  0  0  0  0  0
  -37.0677 -109.1941  223.8427 F   0  0  0  0  0  0  0  0  0  0  0  0
  -38.8803 -109.7942  225.0027 F   0  0  0  0  0  0  0  0  0  0  0  0
  -37.8907 -111.4288  223.5558 C   0  0  0  0  0  0  0  0  0  0  0  0
  -38.6870 -114.0764  222.3120 N   0  0  0  0  0  0  0  0  0  0  0  0
  -39.7550 -115.1898  224.5443 C   0  0  0  0  0  0  0  0  0  0  0  0
  -40.3566 -115.1140  225.7893 C   0  0  0  0  0  0  0  0  0  0  0  0
  1  2  1  0
  2  3  1  0
  2  4  1  0
  4  5  1  0
  5  6  2  0
  6  7  1  0
  7  8  2  0
  8  9  1  0
  9 10  2  0
 10 11  1  0
 11 12  1  0
 12 13  2  0
 13 14  1  0
 15 14  1  1
 15 16  1  0
 16 17  1  0
 17 18  1  0
 18 19  1  0
 14 20  2  0
 20 21  1  0
 21 22  1  0
 22 23  1  0
 23 24  1  0
 24 25  1  0
 25 26  1  0
 25 27  1  0
 25 28  1  0
 21 29  2  0
 10 30  1  0
 30 31  2  0
 31  4  1  0
 31  7  1  0
 29 12  1  0
 19 15  1  0
 28 22  1  0
M  END
$$$$
