
     RDKit          3D

 31 35  0  0  0  0  0  0  0  0999 V2000
  -23.6577  -89.5461  230.2004 C   0  0  0  0  0  0  0  0  0  0  0  0
  -22.6481  -89.2962  231.3056 C   0  0  0  0  0  0  0  0  0  0  0  0
  -23.4087  -88.8289  232.5270 C   0  0  0  0  0  0  0  0  0  0  0  0
  -21.8326  -88.1558  230.8615 N   0  0  0  0  0  0  0  0  0  0  0  0
  -22.2546  -87.0716  230.2396 N   0  0  0  0  0  0  0  0  0  0  0  0
  -21.2367  -86.2319  229.9820 C   0  0  0  0  0  0  0  0  0  0  0  0
  -20.0915  -86.8204  230.4721 C   0  0  0  0  0  0  0  0  0  0  0  0
  -18.7575  -86.4859  230.5241 C   0  0  0  0  0  0  0  0  0  0  0  0
  -17.8928  -87.3249  231.0949 N   0  0  0  0  0  0  0  0  0  0  0  0
  -18.2212  -88.4996  231.6378 C   0  0  0  0  0  0  0  0  0  0  0  0
  -17.2827  -89.3761  232.2399 N   0  0  0  0  0  0  0  0  0  0  0  0
  -17.7289  -90.2786  233.2489 C   0  0  0  0  0  0  0  0  0  0  0  0
  -17.0686  -90.4027  234.4570 C   0  0  0  0  0  0  0  0  0  0  0  0
  -17.5601  -91.2919  235.3746 C   0  0  0  0  0  0  0  0  0  0  0  0
  -16.8603  -91.4365  236.6793 C   0  0  2  0  0  0  0  0  0  0  0  0
  -15.4669  -91.9396  236.4229 C   0  0  0  0  0  0  0  0  0  0  0  0
  -15.1799  -92.8941  237.5627 C   0  0  0  0  0  0  0  0  0  0  0  0
  -16.3646  -92.9042  238.3919 N   0  0  0  0  0  0  0  0  0  0  0  0
  -17.4525  -92.5626  237.5073 C   0  0  0  0  0  0  0  0  0  0  0  0
  -18.6589  -92.0277  235.1084 N   0  0  0  0  0  0  0  0  0  0  0  0
  -19.3120  -91.9141  233.9302 C   0  0  0  0  0  0  0  0  0  0  0  0
  -20.4701  -92.6908  233.6523 N   0  0  0  0  0  0  0  0  0  0  0  0
  -21.0773  -93.6277  234.5780 C   0  0  0  0  0  0  0  0  0  0  0  0
  -22.5616  -93.2900  234.3834 C   0  0  0  0  0  0  0  0  0  0  0  0
  -22.6363  -93.2397  232.8719 C   0  0  0  0  0  0  0  0  0  0  0  0
  -22.8589  -94.5348  232.4400 F   0  0  0  0  0  0  0  0  0  0  0  0
  -23.6539  -92.4470  232.4142 F   0  0  0  0  0  0  0  0  0  0  0  0
  -21.2747  -92.7338  232.4544 C   0  0  0  0  0  0  0  0  0  0  0  0
  -18.8258  -91.0494  233.0502 N   0  0  0  0  0  0  0  0  0  0  0  0
  -19.5523  -88.8568  231.5978 C   0  0  0  0  0  0  0  0  0  0  0  0
  -20.4903  -88.0205  231.0162 C   0  0  0  0  0  0  0  0  0  0  0  0
  1  2  1  0
  2  3  1  0
  2  4  1  0
  4  5  1  0
  5  6  2  0
  6  7  1  0
  7  8  2  0
  8  9  1  0
  9 10  2  0
 10 11  1  0
 11 12  1  0
 12 13  2  0
 13 14  1  0
 15 14  1  6
 15 16  1  0
 16 17  1  0
 17 18  1  0
 18 19  1  0
 14 20  2  0
 20 21  1  0
 21 22  1  0
 22 23  1  0
 23 24  1  0
 24 25  1  0
 25 26  1  0
 25 27  1  0
 25 28  1  0
 21 29  2  0
 10 30  1  0
 30 31  2  0
 31  4  1  0
 31  7  1  0
 29 12  1  0
 19 15  1  0
 28 22  1  0
M  END
$$$$
