
     RDKit          3D

 31 35  0  0  0  0  0  0  0  0999 V2000
  -38.6777 -112.5720  227.8183 C   0  0  0  0  0  0  0  0  0  0  0  0
  -39.4246 -112.8846  226.5347 C   0  0  0  0  0  0  0  0  0  0  0  0
  -40.5255 -111.8584  226.3810 C   0  0  0  0  0  0  0  0  0  0  0  0
  -40.0889 -114.1780  226.7552 N   0  0  0  0  0  0  0  0  0  0  0  0
  -40.7210 -114.5710  227.8444 N   0  0  0  0  0  0  0  0  0  0  0  0
  -41.2099 -115.8152  227.7003 C   0  0  0  0  0  0  0  0  0  0  0  0
  -40.8663 -116.2421  226.4362 C   0  0  0  0  0  0  0  0  0  0  0  0
  -41.0605 -117.3864  225.6969 C   0  0  0  0  0  0  0  0  0  0  0  0
  -40.5711 -117.4584  224.4588 N   0  0  0  0  0  0  0  0  0  0  0  0
  -39.8867 -116.4835  223.8558 C   0  0  0  0  0  0  0  0  0  0  0  0
  -39.3753 -116.5832  222.5367 N   0  0  0  0  0  0  0  0  0  0  0  0
  -39.2957 -115.4068  221.7357 C   0  0  0  0  0  0  0  0  0  0  0  0
  -39.4980 -115.4427  220.3688 C   0  0  0  0  0  0  0  0  0  0  0  0
  -39.4045 -114.2693  219.6698 C   0  0  0  0  0  0  0  0  0  0  0  0
  -39.6196 -114.2921  218.1981 C   0  0  2  0  0  0  0  0  0  0  0  0
  -38.6722 -115.2888  217.5904 C   0  0  0  0  0  0  0  0  0  0  0  0
  -38.2423 -114.6695  216.2772 C   0  0  0  0  0  0  0  0  0  0  0  0
  -38.9260 -113.3986  216.1847 N   0  0  0  0  0  0  0  0  0  0  0  0
  -39.1692 -112.9958  217.5491 C   0  0  0  0  0  0  0  0  0  0  0  0
  -39.1225 -113.1086  220.2968 N   0  0  0  0  0  0  0  0  0  0  0  0
  -38.9230 -113.0625  221.6331 C   0  0  0  0  0  0  0  0  0  0  0  0
  -38.6262 -111.8377  222.2914 N   0  0  0  0  0  0  0  0  0  0  0  0
  -38.4408 -110.5645  221.6220 C   0  0  0  0  0  0  0  0  0  0  0  0
  -39.2345 -109.6403  222.5552 C   0  0  0  0  0  0  0  0  0  0  0  0
  -38.7247 -110.1065  223.9026 C   0  0  0  0  0  0  0  0  0  0  0  0
  -37.5664 -109.3952  224.1590 F   0  0  0  0  0  0  0  0  0  0  0  0
  -39.6123 -109.8740  224.9183 F   0  0  0  0  0  0  0  0  0  0  0  0
  -38.4477 -111.5784  223.7005 C   0  0  0  0  0  0  0  0  0  0  0  0
  -39.0164 -114.2058  222.2983 N   0  0  0  0  0  0  0  0  0  0  0  0
  -39.6792 -115.3267  224.5767 C   0  0  0  0  0  0  0  0  0  0  0  0
  -40.1671 -115.2019  225.8667 C   0  0  0  0  0  0  0  0  0  0  0  0
  1  2  1  0
  2  3  1  0
  2  4  1  0
  4  5  1  0
  5  6  2  0
  6  7  1  0
  7  8  2  0
  8  9  1  0
  9 10  2  0
 10 11  1  0
 11 12  1  0
 12 13  2  0
 13 14  1  0
 15 14  1  1
 15 16  1  0
 16 17  1  0
 17 18  1  0
 18 19  1  0
 14 20  2  0
 20 21  1  0
 21 22  1  0
 22 23  1  0
 23 24  1  0
 24 25  1  0
 25 26  1  0
 25 27  1  0
 25 28  1  0
 21 29  2  0
 10 30  1  0
 30 31  2  0
 31  4  1  0
 31  7  1  0
 29 12  1  0
 19 15  1  0
 28 22  1  0
M  END
$$$$
