
     RDKit          3D

 31 35  0  0  0  0  0  0  0  0999 V2000
  -39.3563 -112.2802  227.9068 C   0  0  0  0  0  0  0  0  0  0  0  0
  -39.7859 -112.7646  226.5342 C   0  0  0  0  0  0  0  0  0  0  0  0
  -40.9892 -111.9496  226.1141 C   0  0  0  0  0  0  0  0  0  0  0  0
  -40.2615 -114.1437  226.7201 N   0  0  0  0  0  0  0  0  0  0  0  0
  -40.8938 -114.6314  227.7702 N   0  0  0  0  0  0  0  0  0  0  0  0
  -41.1812 -115.9341  227.6027 C   0  0  0  0  0  0  0  0  0  0  0  0
  -40.7002 -116.2996  226.3645 C   0  0  0  0  0  0  0  0  0  0  0  0
  -40.6750 -117.4571  225.6205 C   0  0  0  0  0  0  0  0  0  0  0  0
  -40.1047 -117.4499  224.4154 N   0  0  0  0  0  0  0  0  0  0  0  0
  -39.5379 -116.3812  223.8507 C   0  0  0  0  0  0  0  0  0  0  0  0
  -38.9369 -116.3978  222.5662 N   0  0  0  0  0  0  0  0  0  0  0  0
  -39.0005 -115.2251  221.7583 C   0  0  0  0  0  0  0  0  0  0  0  0
  -39.3009 -115.2861  220.4104 C   0  0  0  0  0  0  0  0  0  0  0  0
  -39.3429 -114.1147  219.7032 C   0  0  0  0  0  0  0  0  0  0  0  0
  -39.6647 -114.1643  218.2518 C   0  0  2  0  0  0  0  0  0  0  0  0
  -38.7452 -115.1528  217.5902 C   0  0  0  0  0  0  0  0  0  0  0  0
  -38.4249 -114.5461  216.2404 C   0  0  0  0  0  0  0  0  0  0  0  0
  -39.1381 -113.2896  216.1804 N   0  0  0  0  0  0  0  0  0  0  0  0
  -39.2884 -112.8702  217.5532 C   0  0  0  0  0  0  0  0  0  0  0  0
  -39.0978 -112.9321  220.3043 N   0  0  0  0  0  0  0  0  0  0  0  0
  -38.8031 -112.8613  221.6218 C   0  0  0  0  0  0  0  0  0  0  0  0
  -38.5455 -111.6135  222.2527 N   0  0  0  0  0  0  0  0  0  0  0  0
  -38.5629 -110.3289  221.5795 C   0  0  0  0  0  0  0  0  0  0  0  0
  -39.3215 -109.4834  222.6114 C   0  0  0  0  0  0  0  0  0  0  0  0
  -38.6111 -109.8983  223.8826 C   0  0  0  0  0  0  0  0  0  0  0  0
  -37.5024 -109.0803  224.0053 F   0  0  0  0  0  0  0  0  0  0  0  0
  -39.3874 -109.7501  225.0001 F   0  0  0  0  0  0  0  0  0  0  0  0
  -38.2233 -111.3375  223.6327 C   0  0  0  0  0  0  0  0  0  0  0  0
  -38.7657 -114.0030  222.2952 N   0  0  0  0  0  0  0  0  0  0  0  0
  -39.5508 -115.2093  224.5770 C   0  0  0  0  0  0  0  0  0  0  0  0
  -40.1306 -115.1641  225.8338 C   0  0  0  0  0  0  0  0  0  0  0  0
  1  2  1  0
  2  3  1  0
  2  4  1  0
  4  5  1  0
  5  6  2  0
  6  7  1  0
  7  8  2  0
  8  9  1  0
  9 10  2  0
 10 11  1  0
 11 12  1  0
 12 13  2  0
 13 14  1  0
 15 14  1  1
 15 16  1  0
 16 17  1  0
 17 18  1  0
 18 19  1  0
 14 20  2  0
 20 21  1  0
 21 22  1  0
 22 23  1  0
 23 24  1  0
 24 25  1  0
 25 26  1  0
 25 27  1  0
 25 28  1  0
 21 29  2  0
 10 30  1  0
 30 31  2  0
 31  4  1  0
 31  7  1  0
 29 12  1  0
 19 15  1  0
 28 22  1  0
M  END
$$$$
