
     RDKit          3D

 31 35  0  0  0  0  0  0  0  0999 V2000
  -23.1089  -90.3820  229.2034 C   0  0  0  0  0  0  0  0  0  0  0  0
  -22.3359  -90.0299  230.4611 C   0  0  0  0  0  0  0  0  0  0  0  0
  -23.3361  -89.8563  231.5828 C   0  0  0  0  0  0  0  0  0  0  0  0
  -21.7473  -88.7041  230.2191 N   0  0  0  0  0  0  0  0  0  0  0  0
  -22.2906  -87.7031  229.5535 N   0  0  0  0  0  0  0  0  0  0  0  0
  -21.4727  -86.6364  229.5270 C   0  0  0  0  0  0  0  0  0  0  0  0
  -20.3339  -86.9811  230.2216 C   0  0  0  0  0  0  0  0  0  0  0  0
  -19.1529  -86.3550  230.5487 C   0  0  0  0  0  0  0  0  0  0  0  0
  -18.2367  -87.0130  231.2595 N   0  0  0  0  0  0  0  0  0  0  0  0
  -18.3717  -88.2678  231.6950 C   0  0  0  0  0  0  0  0  0  0  0  0
  -17.3823  -88.9476  232.4502 N   0  0  0  0  0  0  0  0  0  0  0  0
  -17.7932  -89.8867  233.4407 C   0  0  0  0  0  0  0  0  0  0  0  0
  -17.0182  -90.1561  234.5532 C   0  0  0  0  0  0  0  0  0  0  0  0
  -17.4828  -91.0713  235.4592 C   0  0  0  0  0  0  0  0  0  0  0  0
  -16.6599  -91.3717  236.6614 C   0  0  2  0  0  0  0  0  0  0  0  0
  -15.2960  -91.8153  236.2103 C   0  0  0  0  0  0  0  0  0  0  0  0
  -14.8970  -92.9041  237.1839 C   0  0  0  0  0  0  0  0  0  0  0  0
  -15.9962  -93.0399  238.1138 N   0  0  0  0  0  0  0  0  0  0  0  0
  -17.1656  -92.6045  237.3887 C   0  0  0  0  0  0  0  0  0  0  0  0
  -18.6648  -91.6940  235.2726 N   0  0  0  0  0  0  0  0  0  0  0  0
  -19.4304  -91.4378  234.1882 C   0  0  0  0  0  0  0  0  0  0  0  0
  -20.6759  -92.0956  233.9941 N   0  0  0  0  0  0  0  0  0  0  0  0
  -21.2614  -93.0448  234.9213 C   0  0  0  0  0  0  0  0  0  0  0  0
  -22.7221  -92.5744  234.9171 C   0  0  0  0  0  0  0  0  0  0  0  0
  -22.9533  -92.4084  233.4298 C   0  0  0  0  0  0  0  0  0  0  0  0
  -23.3350  -93.6463  232.9447 F   0  0  0  0  0  0  0  0  0  0  0  0
  -23.9396  -91.5045  233.1410 F   0  0  0  0  0  0  0  0  0  0  0  0
  -21.6047  -91.9859  232.8943 C   0  0  0  0  0  0  0  0  0  0  0  0
  -18.9690  -90.5495  233.3184 N   0  0  0  0  0  0  0  0  0  0  0  0
  -19.5469  -88.9162  231.3796 C   0  0  0  0  0  0  0  0  0  0  0  0
  -20.5302  -88.2768  230.6434 C   0  0  0  0  0  0  0  0  0  0  0  0
  1  2  1  0
  2  3  1  0
  2  4  1  0
  4  5  1  0
  5  6  2  0
  6  7  1  0
  7  8  2  0
  8  9  1  0
  9 10  2  0
 10 11  1  0
 11 12  1  0
 12 13  2  0
 13 14  1  0
 15 14  1  6
 15 16  1  0
 16 17  1  0
 17 18  1  0
 18 19  1  0
 14 20  2  0
 20 21  1  0
 21 22  1  0
 22 23  1  0
 23 24  1  0
 24 25  1  0
 25 26  1  0
 25 27  1  0
 25 28  1  0
 21 29  2  0
 10 30  1  0
 30 31  2  0
 31  4  1  0
 31  7  1  0
 29 12  1  0
 19 15  1  0
 28 22  1  0
M  END
$$$$
