
     RDKit          3D

 31 35  0  0  0  0  0  0  0  0999 V2000
  -23.0380  -89.6551  229.1374 C   0  0  0  0  0  0  0  0  0  0  0  0
  -22.2315  -89.5407  230.4179 C   0  0  0  0  0  0  0  0  0  0  0  0
  -23.2076  -89.4308  231.5685 C   0  0  0  0  0  0  0  0  0  0  0  0
  -21.5296  -88.2505  230.3427 N   0  0  0  0  0  0  0  0  0  0  0  0
  -21.9866  -87.1265  229.8250 N   0  0  0  0  0  0  0  0  0  0  0  0
  -21.0778  -86.1407  229.9251 C   0  0  0  0  0  0  0  0  0  0  0  0
  -19.9696  -86.6723  230.5474 C   0  0  0  0  0  0  0  0  0  0  0  0
  -18.7358  -86.2001  230.9331 C   0  0  0  0  0  0  0  0  0  0  0  0
  -17.8769  -87.0238  231.5342 N   0  0  0  0  0  0  0  0  0  0  0  0
  -18.1195  -88.3090  231.8024 C   0  0  0  0  0  0  0  0  0  0  0  0
  -17.1893  -89.1665  232.4433 N   0  0  0  0  0  0  0  0  0  0  0  0
  -17.6713  -90.1517  233.3538 C   0  0  0  0  0  0  0  0  0  0  0  0
  -16.9830  -90.4733  234.5086 C   0  0  0  0  0  0  0  0  0  0  0  0
  -17.5122  -91.4305  235.3319 C   0  0  0  0  0  0  0  0  0  0  0  0
  -16.7829  -91.7874  236.5783 C   0  0  2  0  0  0  0  0  0  0  0  0
  -15.3735  -92.1664  236.2174 C   0  0  0  0  0  0  0  0  0  0  0  0
  -15.0235  -93.3056  237.1515 C   0  0  0  0  0  0  0  0  0  0  0  0
  -16.1912  -93.5289  237.9748 N   0  0  0  0  0  0  0  0  0  0  0  0
  -17.3093  -93.0770  237.1819 C   0  0  0  0  0  0  0  0  0  0  0  0
  -18.6739  -92.0442  235.0257 N   0  0  0  0  0  0  0  0  0  0  0  0
  -19.3548  -91.7371  233.8989 C   0  0  0  0  0  0  0  0  0  0  0  0
  -20.5792  -92.3853  233.5788 N   0  0  0  0  0  0  0  0  0  0  0  0
  -21.2118  -93.4039  234.3946 C   0  0  0  0  0  0  0  0  0  0  0  0
  -22.6741  -92.9423  234.3331 C   0  0  0  0  0  0  0  0  0  0  0  0
  -22.8136  -92.6676  232.8506 C   0  0  0  0  0  0  0  0  0  0  0  0
  -23.1518  -93.8681  232.2523 F   0  0  0  0  0  0  0  0  0  0  0  0
  -23.7890  -91.7501  232.5676 F   0  0  0  0  0  0  0  0  0  0  0  0
  -21.4385  -92.1992  232.4337 C   0  0  0  0  0  0  0  0  0  0  0  0
  -18.8316  -90.8084  233.1102 N   0  0  0  0  0  0  0  0  0  0  0  0
  -19.3493  -88.8052  231.4253 C   0  0  0  0  0  0  0  0  0  0  0  0
  -20.2769  -87.9907  230.7978 C   0  0  0  0  0  0  0  0  0  0  0  0
  1  2  1  0
  2  3  1  0
  2  4  1  0
  4  5  1  0
  5  6  2  0
  6  7  1  0
  7  8  2  0
  8  9  1  0
  9 10  2  0
 10 11  1  0
 11 12  1  0
 12 13  2  0
 13 14  1  0
 15 14  1  6
 15 16  1  0
 16 17  1  0
 17 18  1  0
 18 19  1  0
 14 20  2  0
 20 21  1  0
 21 22  1  0
 22 23  1  0
 23 24  1  0
 24 25  1  0
 25 26  1  0
 25 27  1  0
 25 28  1  0
 21 29  2  0
 10 30  1  0
 30 31  2  0
 31  4  1  0
 31  7  1  0
 29 12  1  0
 19 15  1  0
 28 22  1  0
M  END
$$$$
