7ES1_UDP_holo_aligned_esmfold_protein
     RDKit          3D

 25 26  0  0  0  0  0  0  0  0999 V2000
   16.8333    9.2603   14.5345 O   0  0  0  0  0  0  0  0  0  0  0  0
   15.9481    9.2448   15.3822 C   0  0  0  0  0  0  0  0  0  0  0  0
   16.1058    8.5596   16.6509 C   0  0  0  0  0  0  0  0  0  0  0  0
   15.1345    8.7066   17.6183 C   0  0  0  0  0  0  0  0  0  0  0  0
   13.9858    9.4930   17.3635 N   0  0  0  0  0  0  0  0  0  0  0  0
   13.0663    9.8925   18.4391 C   0  0  2  0  0  0  0  0  0  0  0  0
   13.4191    9.1794   19.6446 O   0  0  0  0  0  0  0  0  0  0  0  0
   12.3704    8.2909   20.0370 C   0  0  2  0  0  0  0  0  0  0  0  0
   12.8779    6.8560   20.3595 C   0  0  0  0  0  0  0  0  0  0  0  0
   12.7983    6.5230   21.7775 O   0  0  0  0  0  0  0  0  0  0  0  0
   12.1625    5.0891   22.2112 P   0  0  2  0  0  5  0  0  0  0  0  0
   11.4975    4.3488   21.1378 O   0  0  0  0  0  0  0  0  0  0  0  0
   10.9319    5.4466   23.1244 O   0  0  0  0  0  0  0  0  0  0  0  0
   13.3361    4.1990   22.7842 O   0  0  0  0  0  0  0  0  0  0  0  0
   12.7606    3.4693   24.0406 P   0  0  0  0  0  5  0  0  0  0  0  0
   12.6478    4.4443   25.1122 O   0  0  0  0  0  0  0  0  0  0  0  0
   13.7454    2.3586   24.5307 O   0  0  0  0  0  0  0  0  0  0  0  0
   11.3758    2.7650   23.7834 O   0  0  0  0  0  0  0  0  0  0  0  0
   11.3175    8.2790   18.9274 C   0  0  1  0  0  0  0  0  0  0  0  0
   10.0158    8.1251   19.5417 O   0  0  0  0  0  0  0  0  0  0  0  0
   11.5684    9.5779   18.1508 C   0  0  1  0  0  0  0  0  0  0  0  0
   10.6482   10.6368   18.5184 O   0  0  0  0  0  0  0  0  0  0  0  0
   13.9116   10.1769   16.1524 C   0  0  0  0  0  0  0  0  0  0  0  0
   13.0524   11.0183   15.9378 O   0  0  0  0  0  0  0  0  0  0  0  0
   14.8010    9.9450   15.1449 N   0  0  0  0  0  0  0  0  0  0  0  0
  1  2  2  0
  2  3  1  0
  3  4  2  0
  4  5  1  0
  6  5  1  6
  6  7  1  0
  7  8  1  0
  8  9  1  6
  9 10  1  0
 11 10  1  0
 11 12  2  0
 11 13  1  1
 11 14  1  0
 14 15  1  0
 15 16  2  0
 15 17  1  0
 15 18  1  0
  8 19  1  0
 19 20  1  1
 19 21  1  0
 21 22  1  1
  5 23  1  0
 23 24  2  0
 23 25  1  0
 25  2  1  0
 21  6  1  0
M  END
