
     RDKit          3D

 25 26  0  0  0  0  0  0  0  0999 V2000
   16.1768    8.6789   14.7006 O   0  0  0  0  0  0  0  0  0  0  0  0
   15.3011    8.9853   15.5670 C   0  0  0  0  0  0  0  0  0  0  0  0
   15.2288    8.2849   16.7468 C   0  0  0  0  0  0  0  0  0  0  0  0
   14.2761    8.6208   17.6855 C   0  0  0  0  0  0  0  0  0  0  0  0
   13.4198    9.6368   17.4388 N   0  0  0  0  0  0  0  0  0  0  0  0
   12.4098    9.9880   18.4414 C   0  0  2  0  0  0  0  0  0  0  0  0
   12.7301    9.3223   19.5983 O   0  0  0  0  0  0  0  0  0  0  0  0
   11.7301    8.4362   19.9022 C   0  0  2  0  0  0  0  0  0  0  0  0
   12.1875    7.2079   20.6334 C   0  0  0  0  0  0  0  0  0  0  0  0
   11.1351    6.7074   21.3617 O   0  0  0  0  0  0  0  0  0  0  0  0
   10.8785    5.0620   21.1244 P   0  0  2  0  0  5  0  0  0  0  0  0
   10.0649    4.8238   19.8756 O   0  0  0  0  0  0  0  0  0  0  0  0
   10.0630    4.3584   22.4264 O   0  0  0  0  0  0  0  0  0  0  0  0
   12.4055    4.3092   21.0113 O   0  0  0  0  0  0  0  0  0  0  0  0
   13.0916    4.0683   22.5181 P   0  0  0  0  0  5  0  0  0  0  0  0
   12.4033    2.8913   23.1806 O   0  0  0  0  0  0  0  0  0  0  0  0
   12.9155    5.4485   23.4806 O   0  0  0  0  0  0  0  0  0  0  0  0
   14.7502    3.7570   22.3876 O   0  0  0  0  0  0  0  0  0  0  0  0
   11.1003    8.0840   18.5540 C   0  0  1  0  0  0  0  0  0  0  0  0
    9.8483    7.5320   18.7024 O   0  0  0  0  0  0  0  0  0  0  0  0
   11.0532    9.4907   17.9844 C   0  0  1  0  0  0  0  0  0  0  0  0
   10.0941   10.2281   18.6476 O   0  0  0  0  0  0  0  0  0  0  0  0
   13.5194   10.3013   16.2723 C   0  0  0  0  0  0  0  0  0  0  0  0
   12.7393   11.2394   16.0284 O   0  0  0  0  0  0  0  0  0  0  0  0
   14.4473    9.9851   15.3414 N   0  0  0  0  0  0  0  0  0  0  0  0
  1  2  2  0
  2  3  1  0
  3  4  2  0
  4  5  1  0
  6  5  1  6
  6  7  1  0
  7  8  1  0
  8  9  1  6
  9 10  1  0
 10 11  1  0
 11 12  2  0
 11 13  1  1
 11 14  1  0
 14 15  1  0
 15 16  2  0
 15 17  1  0
 15 18  1  0
  8 19  1  0
 19 20  1  1
 19 21  1  0
 21 22  1  1
  5 23  1  0
 23 24  2  0
 23 25  1  0
 25  2  1  0
 21  6  1  0
M  END
$$$$
