
     RDKit          3D

 25 26  0  0  0  0  0  0  0  0999 V2000
   16.3481    8.5643   14.8551 O   0  0  0  0  0  0  0  0  0  0  0  0
   15.4534    8.9173   15.6835 C   0  0  0  0  0  0  0  0  0  0  0  0
   15.2661    8.1979   16.8391 C   0  0  0  0  0  0  0  0  0  0  0  0
   14.2932    8.5846   17.7366 C   0  0  0  0  0  0  0  0  0  0  0  0
   13.5302    9.6687   17.4736 N   0  0  0  0  0  0  0  0  0  0  0  0
   12.4979   10.0735   18.4323 C   0  0  2  0  0  0  0  0  0  0  0  0
   12.6804    9.3296   19.5714 O   0  0  0  0  0  0  0  0  0  0  0  0
   11.5832    8.5339   19.7729 C   0  0  2  0  0  0  0  0  0  0  0  0
   11.8746    7.2358   20.4675 C   0  0  0  0  0  0  0  0  0  0  0  0
   10.6875    6.5905   20.7182 O   0  0  0  0  0  0  0  0  0  0  0  0
   10.8849    5.0644   21.3976 P   0  0  2  0  0  5  0  0  0  0  0  0
   11.4101    4.0883   20.3731 O   0  0  0  0  0  0  0  0  0  0  0  0
    9.4321    4.4554   22.0089 O   0  0  0  0  0  0  0  0  0  0  0  0
   11.9670    5.2154   22.7081 O   0  0  0  0  0  0  0  0  0  0  0  0
   12.9277    3.8564   22.8791 P   0  0  0  0  0  5  0  0  0  0  0  0
   13.3475    3.7403   24.3312 O   0  0  0  0  0  0  0  0  0  0  0  0
   14.2996    3.9686   21.8954 O   0  0  0  0  0  0  0  0  0  0  0  0
   12.0920    2.4594   22.4157 O   0  0  0  0  0  0  0  0  0  0  0  0
   11.0078    8.3046   18.3748 C   0  0  1  0  0  0  0  0  0  0  0  0
    9.7019    7.8727   18.4231 O   0  0  0  0  0  0  0  0  0  0  0  0
   11.1311    9.7327   17.8737 C   0  0  1  0  0  0  0  0  0  0  0  0
   10.2075   10.5313   18.5161 O   0  0  0  0  0  0  0  0  0  0  0  0
   13.7412   10.3498   16.3317 C   0  0  0  0  0  0  0  0  0  0  0  0
   13.0481   11.3503   16.0734 O   0  0  0  0  0  0  0  0  0  0  0  0
   14.6905    9.9844   15.4413 N   0  0  0  0  0  0  0  0  0  0  0  0
  1  2  2  0
  2  3  1  0
  3  4  2  0
  4  5  1  0
  6  5  1  6
  6  7  1  0
  7  8  1  0
  8  9  1  6
  9 10  1  0
 10 11  1  0
 11 12  2  0
 11 13  1  1
 11 14  1  0
 14 15  1  0
 15 16  2  0
 15 17  1  0
 15 18  1  0
  8 19  1  0
 19 20  1  1
 19 21  1  0
 21 22  1  1
  5 23  1  0
 23 24  2  0
 23 25  1  0
 25  2  1  0
 21  6  1  0
M  END
$$$$
