
     RDKit          3D

 25 26  0  0  0  0  0  0  0  0999 V2000
   16.2587    8.6724   14.6850 O   0  0  0  0  0  0  0  0  0  0  0  0
   15.4135    8.9742   15.5828 C   0  0  0  0  0  0  0  0  0  0  0  0
   15.2907    8.1865   16.7019 C   0  0  0  0  0  0  0  0  0  0  0  0
   14.3714    8.5176   17.6750 C   0  0  0  0  0  0  0  0  0  0  0  0
   13.5973    9.6147   17.5215 N   0  0  0  0  0  0  0  0  0  0  0  0
   12.6223    9.9602   18.5601 C   0  0  2  0  0  0  0  0  0  0  0  0
   12.9026    9.1884   19.6601 O   0  0  0  0  0  0  0  0  0  0  0  0
   11.8439    8.3550   19.9098 C   0  0  2  0  0  0  0  0  0  0  0  0
   12.2175    7.0459   20.5416 C   0  0  0  0  0  0  0  0  0  0  0  0
   11.1874    6.6349   21.3529 O   0  0  0  0  0  0  0  0  0  0  0  0
   10.7611    5.0230   21.1299 P   0  0  2  0  0  5  0  0  0  0  0  0
   10.0106    4.8445   19.8324 O   0  0  0  0  0  0  0  0  0  0  0  0
    9.7857    4.4508   22.3854 O   0  0  0  0  0  0  0  0  0  0  0  0
   12.1963    4.1004   21.1370 O   0  0  0  0  0  0  0  0  0  0  0  0
   12.9365    4.1162   22.6374 P   0  0  0  0  0  5  0  0  0  0  0  0
   12.0762    4.9193   23.5929 O   0  0  0  0  0  0  0  0  0  0  0  0
   14.4763    4.8096   22.5351 O   0  0  0  0  0  0  0  0  0  0  0  0
   13.1336    2.5446   23.2341 O   0  0  0  0  0  0  0  0  0  0  0  0
   11.1808    8.1507   18.5471 C   0  0  1  0  0  0  0  0  0  0  0  0
    9.8935    7.6791   18.6698 O   0  0  0  0  0  0  0  0  0  0  0  0
   11.2303    9.5960   18.0845 C   0  0  1  0  0  0  0  0  0  0  0  0
   10.3313   10.3475   18.8128 O   0  0  0  0  0  0  0  0  0  0  0  0
   13.7445   10.3633   16.4123 C   0  0  0  0  0  0  0  0  0  0  0  0
   13.0401   11.3768   16.2544 O   0  0  0  0  0  0  0  0  0  0  0  0
   14.6406   10.0531   15.4489 N   0  0  0  0  0  0  0  0  0  0  0  0
  1  2  2  0
  2  3  1  0
  3  4  2  0
  4  5  1  0
  6  5  1  6
  6  7  1  0
  7  8  1  0
  8  9  1  6
  9 10  1  0
 10 11  1  0
 11 12  2  0
 11 13  1  1
 11 14  1  0
 14 15  1  0
 15 16  2  0
 15 17  1  0
 15 18  1  0
  8 19  1  0
 19 20  1  1
 19 21  1  0
 21 22  1  1
  5 23  1  0
 23 24  2  0
 23 25  1  0
 25  2  1  0
 21  6  1  0
M  END
$$$$
