
     RDKit          3D

 25 26  0  0  0  0  0  0  0  0999 V2000
   16.2515    8.4947   14.7832 O   0  0  0  0  0  0  0  0  0  0  0  0
   15.3683    8.8595   15.6188 C   0  0  0  0  0  0  0  0  0  0  0  0
   15.2126    8.1706   16.7973 C   0  0  0  0  0  0  0  0  0  0  0  0
   14.2519    8.5700   17.7025 C   0  0  0  0  0  0  0  0  0  0  0  0
   13.4699    9.6366   17.4243 N   0  0  0  0  0  0  0  0  0  0  0  0
   12.4510   10.0552   18.3914 C   0  0  2  0  0  0  0  0  0  0  0  0
   12.7073    9.3982   19.5690 O   0  0  0  0  0  0  0  0  0  0  0  0
   11.6581    8.5667   19.8610 C   0  0  2  0  0  0  0  0  0  0  0  0
   12.0359    7.3330   20.6275 C   0  0  0  0  0  0  0  0  0  0  0  0
   10.8954    6.7613   21.1382 O   0  0  0  0  0  0  0  0  0  0  0  0
   10.9368    5.0796   21.1511 P   0  0  2  0  0  5  0  0  0  0  0  0
   10.1600    4.5181   19.9851 O   0  0  0  0  0  0  0  0  0  0  0  0
   10.2827    4.4453   22.5741 O   0  0  0  0  0  0  0  0  0  0  0  0
   12.5727    4.5999   21.0828 O   0  0  0  0  0  0  0  0  0  0  0  0
   13.1366    4.1033   22.5777 P   0  0  0  0  0  5  0  0  0  0  0  0
   12.2728    2.9563   23.0640 O   0  0  0  0  0  0  0  0  0  0  0  0
   13.0752    5.3761   23.6907 O   0  0  0  0  0  0  0  0  0  0  0  0
   14.7494    3.5992   22.4819 O   0  0  0  0  0  0  0  0  0  0  0  0
   11.0491    8.2180   18.5024 C   0  0  1  0  0  0  0  0  0  0  0  0
    9.7684    7.7291   18.6256 O   0  0  0  0  0  0  0  0  0  0  0  0
   11.0851    9.6138   17.9056 C   0  0  1  0  0  0  0  0  0  0  0  0
   10.1447   10.4089   18.5277 O   0  0  0  0  0  0  0  0  0  0  0  0
   13.6502   10.2880   16.2601 C   0  0  0  0  0  0  0  0  0  0  0  0
   12.9392   11.2720   15.9875 O   0  0  0  0  0  0  0  0  0  0  0  0
   14.5870    9.9098   15.3618 N   0  0  0  0  0  0  0  0  0  0  0  0
  1  2  2  0
  2  3  1  0
  3  4  2  0
  4  5  1  0
  6  5  1  6
  6  7  1  0
  7  8  1  0
  8  9  1  6
  9 10  1  0
 10 11  1  0
 11 12  2  0
 11 13  1  1
 11 14  1  0
 14 15  1  0
 15 16  2  0
 15 17  1  0
 15 18  1  0
  8 19  1  0
 19 20  1  1
 19 21  1  0
 21 22  1  1
  5 23  1  0
 23 24  2  0
 23 25  1  0
 25  2  1  0
 21  6  1  0
M  END
$$$$
