
     RDKit          3D

 25 26  0  0  0  0  0  0  0  0999 V2000
   16.0438    8.4521   14.5516 O   0  0  0  0  0  0  0  0  0  0  0  0
   15.1947    8.8221   15.4198 C   0  0  0  0  0  0  0  0  0  0  0  0
   15.0644    8.1211   16.5943 C   0  0  0  0  0  0  0  0  0  0  0  0
   14.1409    8.5262   17.5349 C   0  0  0  0  0  0  0  0  0  0  0  0
   13.3702    9.6102   17.2953 N   0  0  0  0  0  0  0  0  0  0  0  0
   12.3908   10.0347   18.2999 C   0  0  2  0  0  0  0  0  0  0  0  0
   12.6795    9.3663   19.4636 O   0  0  0  0  0  0  0  0  0  0  0  0
   11.6305    8.5460   19.7865 C   0  0  2  0  0  0  0  0  0  0  0  0
   12.0190    7.3023   20.5312 C   0  0  0  0  0  0  0  0  0  0  0  0
   10.8974    6.7686   21.1192 O   0  0  0  0  0  0  0  0  0  0  0  0
   10.8448    5.0883   21.0598 P   0  0  2  0  0  5  0  0  0  0  0  0
   10.0088    4.6218   19.8928 O   0  0  0  0  0  0  0  0  0  0  0  0
   10.1920    4.4292   22.4720 O   0  0  0  0  0  0  0  0  0  0  0  0
   12.4490    4.5229   20.9263 O   0  0  0  0  0  0  0  0  0  0  0  0
   13.1111    4.1760   22.4232 P   0  0  0  0  0  5  0  0  0  0  0  0
   14.4823    3.5637   22.2155 O   0  0  0  0  0  0  0  0  0  0  0  0
   12.1262    3.0955   23.2745 O   0  0  0  0  0  0  0  0  0  0  0  0
   13.2503    5.5754   23.3650 O   0  0  0  0  0  0  0  0  0  0  0  0
   10.9704    8.2144   18.4476 C   0  0  1  0  0  0  0  0  0  0  0  0
    9.6887    7.7406   18.6121 O   0  0  0  0  0  0  0  0  0  0  0  0
   11.0034    9.6138   17.8591 C   0  0  1  0  0  0  0  0  0  0  0  0
   10.0953   10.4162   18.5187 O   0  0  0  0  0  0  0  0  0  0  0  0
   13.5248   10.2731   16.1339 C   0  0  0  0  0  0  0  0  0  0  0  0
   12.8237   11.2732   15.8966 O   0  0  0  0  0  0  0  0  0  0  0  0
   14.4251    9.8895   15.2012 N   0  0  0  0  0  0  0  0  0  0  0  0
  1  2  2  0
  2  3  1  0
  3  4  2  0
  4  5  1  0
  6  5  1  6
  6  7  1  0
  7  8  1  0
  8  9  1  6
  9 10  1  0
 10 11  1  0
 11 12  2  0
 11 13  1  1
 11 14  1  0
 14 15  1  0
 15 16  2  0
 15 17  1  0
 15 18  1  0
  8 19  1  0
 19 20  1  1
 19 21  1  0
 21 22  1  1
  5 23  1  0
 23 24  2  0
 23 25  1  0
 25  2  1  0
 21  6  1  0
M  END
$$$$
