
     RDKit          3D

 25 26  0  0  0  0  0  0  0  0999 V2000
   16.1714    8.6674   14.7034 O   0  0  0  0  0  0  0  0  0  0  0  0
   15.3173    9.0087   15.5784 C   0  0  0  0  0  0  0  0  0  0  0  0
   15.1142    8.2182   16.6838 C   0  0  0  0  0  0  0  0  0  0  0  0
   14.1855    8.5923   17.6321 C   0  0  0  0  0  0  0  0  0  0  0  0
   13.4813    9.7341   17.4679 N   0  0  0  0  0  0  0  0  0  0  0  0
   12.4958   10.1251   18.4802 C   0  0  2  0  0  0  0  0  0  0  0  0
   12.6951    9.3258   19.5782 O   0  0  0  0  0  0  0  0  0  0  0  0
   11.5819    8.5539   19.7840 C   0  0  2  0  0  0  0  0  0  0  0  0
   11.8575    7.2181   20.4101 C   0  0  0  0  0  0  0  0  0  0  0  0
   10.6737    6.5302   20.5274 O   0  0  0  0  0  0  0  0  0  0  0  0
   10.8483    5.0101   21.2262 P   0  0  2  0  0  5  0  0  0  0  0  0
   11.3362    4.0080   20.2083 O   0  0  0  0  0  0  0  0  0  0  0  0
    9.3924    4.4420   21.8685 O   0  0  0  0  0  0  0  0  0  0  0  0
   11.9537    5.1561   22.5177 O   0  0  0  0  0  0  0  0  0  0  0  0
   12.8551    3.7617   22.7235 P   0  0  0  0  0  5  0  0  0  0  0  0
   12.3306    2.7021   21.7748 O   0  0  0  0  0  0  0  0  0  0  0  0
   12.7402    3.2078   24.3180 O   0  0  0  0  0  0  0  0  0  0  0  0
   14.4937    4.0455   22.4087 O   0  0  0  0  0  0  0  0  0  0  0  0
   10.9514    8.4044   18.3989 C   0  0  1  0  0  0  0  0  0  0  0  0
    9.6355    8.0085   18.4754 O   0  0  0  0  0  0  0  0  0  0  0  0
   11.1006    9.8493   17.9569 C   0  0  1  0  0  0  0  0  0  0  0  0
   10.2247   10.6446   18.6666 O   0  0  0  0  0  0  0  0  0  0  0  0
   13.7062   10.4840   16.3728 C   0  0  0  0  0  0  0  0  0  0  0  0
   13.0669   11.5383   16.2054 O   0  0  0  0  0  0  0  0  0  0  0  0
   14.6126   10.1320   15.4337 N   0  0  0  0  0  0  0  0  0  0  0  0
  1  2  2  0
  2  3  1  0
  3  4  2  0
  4  5  1  0
  6  5  1  6
  6  7  1  0
  7  8  1  0
  8  9  1  6
  9 10  1  0
 10 11  1  0
 11 12  2  0
 11 13  1  1
 11 14  1  0
 14 15  1  0
 15 16  2  0
 15 17  1  0
 15 18  1  0
  8 19  1  0
 19 20  1  1
 19 21  1  0
 21 22  1  1
  5 23  1  0
 23 24  2  0
 23 25  1  0
 25  2  1  0
 21  6  1  0
M  END
$$$$
