
     RDKit          3D

 25 26  0  0  0  0  0  0  0  0999 V2000
   16.0249    8.6739   14.5500 O   0  0  0  0  0  0  0  0  0  0  0  0
   15.1856    8.9725   15.4543 C   0  0  0  0  0  0  0  0  0  0  0  0
   15.1225    8.2250   16.6056 C   0  0  0  0  0  0  0  0  0  0  0  0
   14.2094    8.5526   17.5857 C   0  0  0  0  0  0  0  0  0  0  0  0
   13.3825    9.6066   17.4074 N   0  0  0  0  0  0  0  0  0  0  0  0
   12.4145    9.9486   18.4537 C   0  0  2  0  0  0  0  0  0  0  0  0
   12.7414    9.2199   19.5702 O   0  0  0  0  0  0  0  0  0  0  0  0
   11.7175    8.3580   19.8638 C   0  0  2  0  0  0  0  0  0  0  0  0
   12.1484    7.0821   20.5262 C   0  0  0  0  0  0  0  0  0  0  0  0
   11.1348    6.6421   21.3432 O   0  0  0  0  0  0  0  0  0  0  0  0
   10.7525    5.0189   21.1217 P   0  0  2  0  0  5  0  0  0  0  0  0
    9.8155    4.8467   19.9510 O   0  0  0  0  0  0  0  0  0  0  0  0
   10.0147    4.3544   22.4889 O   0  0  0  0  0  0  0  0  0  0  0  0
   12.2113    4.1720   20.8661 O   0  0  0  0  0  0  0  0  0  0  0  0
   13.1447    4.1111   22.2533 P   0  0  0  0  0  5  0  0  0  0  0  0
   14.5508    4.5622   21.9105 O   0  0  0  0  0  0  0  0  0  0  0  0
   13.1853    2.5385   22.8758 O   0  0  0  0  0  0  0  0  0  0  0  0
   12.5055    5.1111   23.4600 O   0  0  0  0  0  0  0  0  0  0  0  0
   11.0379    8.0903   18.5203 C   0  0  1  0  0  0  0  0  0  0  0  0
    9.7706    7.5780   18.6808 O   0  0  0  0  0  0  0  0  0  0  0  0
   11.0281    9.5221   18.0151 C   0  0  1  0  0  0  0  0  0  0  0  0
   10.1161   10.2631   18.7380 O   0  0  0  0  0  0  0  0  0  0  0  0
   13.4720   10.3166   16.2671 C   0  0  0  0  0  0  0  0  0  0  0  0
   12.7186   11.2901   16.0862 O   0  0  0  0  0  0  0  0  0  0  0  0
   14.3612   10.0092   15.2964 N   0  0  0  0  0  0  0  0  0  0  0  0
  1  2  2  0
  2  3  1  0
  3  4  2  0
  4  5  1  0
  6  5  1  6
  6  7  1  0
  7  8  1  0
  8  9  1  6
  9 10  1  0
 10 11  1  0
 11 12  2  0
 11 13  1  1
 11 14  1  0
 14 15  1  0
 15 16  2  0
 15 17  1  0
 15 18  1  0
  8 19  1  0
 19 20  1  1
 19 21  1  0
 21 22  1  1
  5 23  1  0
 23 24  2  0
 23 25  1  0
 25  2  1  0
 21  6  1  0
M  END
$$$$
