
     RDKit          3D

 25 26  0  0  0  0  0  0  0  0999 V2000
   16.2398    8.6855   14.7503 O   0  0  0  0  0  0  0  0  0  0  0  0
   15.3718    8.9833   15.6275 C   0  0  0  0  0  0  0  0  0  0  0  0
   15.2824    8.2447   16.7826 C   0  0  0  0  0  0  0  0  0  0  0  0
   14.3381    8.5713   17.7331 C   0  0  0  0  0  0  0  0  0  0  0  0
   13.5068    9.6158   17.5220 N   0  0  0  0  0  0  0  0  0  0  0  0
   12.5056    9.9569   18.5369 C   0  0  2  0  0  0  0  0  0  0  0  0
   12.7968    9.2277   19.6629 O   0  0  0  0  0  0  0  0  0  0  0  0
   11.7644    8.3653   19.9230 C   0  0  2  0  0  0  0  0  0  0  0  0
   12.1742    7.0891   20.5983 C   0  0  0  0  0  0  0  0  0  0  0  0
   11.0949    6.5821   21.2814 O   0  0  0  0  0  0  0  0  0  0  0  0
   10.9141    4.9186   21.1088 P   0  0  2  0  0  5  0  0  0  0  0  0
   10.1366    4.5938   19.8565 O   0  0  0  0  0  0  0  0  0  0  0  0
   10.1037    4.2343   22.4241 O   0  0  0  0  0  0  0  0  0  0  0  0
   12.4739    4.2294   21.0551 O   0  0  0  0  0  0  0  0  0  0  0  0
   13.1088    4.0109   22.5876 P   0  0  0  0  0  5  0  0  0  0  0  0
   14.5362    3.5183   22.4542 O   0  0  0  0  0  0  0  0  0  0  0  0
   12.1943    2.8832   23.4562 O   0  0  0  0  0  0  0  0  0  0  0  0
   13.0864    5.4573   23.4663 O   0  0  0  0  0  0  0  0  0  0  0  0
   11.1283    8.0980   18.5583 C   0  0  1  0  0  0  0  0  0  0  0  0
    9.8567    7.5852   18.6777 O   0  0  0  0  0  0  0  0  0  0  0  0
   11.1341    9.5301   18.0538 C   0  0  1  0  0  0  0  0  0  0  0  0
   10.1992   10.2704   18.7474 O   0  0  0  0  0  0  0  0  0  0  0  0
   13.6227   10.3173   16.3789 C   0  0  0  0  0  0  0  0  0  0  0  0
   12.8657   11.2819   16.1679 O   0  0  0  0  0  0  0  0  0  0  0  0
   14.5426   10.0107   15.4369 N   0  0  0  0  0  0  0  0  0  0  0  0
  1  2  2  0
  2  3  1  0
  3  4  2  0
  4  5  1  0
  6  5  1  6
  6  7  1  0
  7  8  1  0
  8  9  1  6
  9 10  1  0
 10 11  1  0
 11 12  2  0
 11 13  1  1
 11 14  1  0
 14 15  1  0
 15 16  2  0
 15 17  1  0
 15 18  1  0
  8 19  1  0
 19 20  1  1
 19 21  1  0
 21 22  1  1
  5 23  1  0
 23 24  2  0
 23 25  1  0
 25  2  1  0
 21  6  1  0
M  END
$$$$
