
     RDKit          3D

 25 26  0  0  0  0  0  0  0  0999 V2000
   16.4315    8.7259   14.6195 O   0  0  0  0  0  0  0  0  0  0  0  0
   15.5573    9.0949   15.4627 C   0  0  0  0  0  0  0  0  0  0  0  0
   15.3508    8.3582   16.6039 C   0  0  0  0  0  0  0  0  0  0  0  0
   14.4002    8.7624   17.5175 C   0  0  0  0  0  0  0  0  0  0  0  0
   13.6780    9.8806   17.2843 N   0  0  0  0  0  0  0  0  0  0  0  0
   12.6693   10.3040   18.2601 C   0  0  2  0  0  0  0  0  0  0  0  0
   12.9856    9.7162   19.4596 O   0  0  0  0  0  0  0  0  0  0  0  0
   11.9808    8.8578   19.8217 C   0  0  2  0  0  0  0  0  0  0  0  0
   12.4313    7.6793   20.6345 C   0  0  0  0  0  0  0  0  0  0  0  0
   11.3481    7.1608   21.3024 O   0  0  0  0  0  0  0  0  0  0  0  0
   11.0620    5.5392   20.9581 P   0  0  2  0  0  5  0  0  0  0  0  0
   12.3061    4.7169   21.1918 O   0  0  0  0  0  0  0  0  0  0  0  0
   10.5744    5.3129   19.3562 O   0  0  0  0  0  0  0  0  0  0  0  0
    9.7851    5.0130   21.9598 O   0  0  0  0  0  0  0  0  0  0  0  0
   10.2941    3.8590   23.0592 P   0  0  0  0  0  5  0  0  0  0  0  0
    9.0803    3.1063   23.5674 O   0  0  0  0  0  0  0  0  0  0  0  0
   11.0995    4.5866   24.3570 O   0  0  0  0  0  0  0  0  0  0  0  0
   11.3771    2.7734   22.3427 O   0  0  0  0  0  0  0  0  0  0  0  0
   11.3498    8.4187   18.4998 C   0  0  1  0  0  0  0  0  0  0  0  0
   10.0948    7.8844   18.6840 O   0  0  0  0  0  0  0  0  0  0  0  0
   11.3104    9.7840   17.8365 C   0  0  1  0  0  0  0  0  0  0  0  0
   10.3548   10.5694   18.4476 O   0  0  0  0  0  0  0  0  0  0  0  0
   13.9068   10.5779   16.1558 C   0  0  0  0  0  0  0  0  0  0  0  0
   13.2512   11.6099   15.9248 O   0  0  0  0  0  0  0  0  0  0  0  0
   14.8346   10.1958   15.2499 N   0  0  0  0  0  0  0  0  0  0  0  0
  1  2  2  0
  2  3  1  0
  3  4  2  0
  4  5  1  0
  6  5  1  6
  6  7  1  0
  7  8  1  0
  8  9  1  6
  9 10  1  0
 10 11  1  0
 11 12  2  0
 11 13  1  6
 11 14  1  0
 14 15  1  0
 15 16  2  0
 15 17  1  0
 15 18  1  0
  8 19  1  0
 19 20  1  1
 19 21  1  0
 21 22  1  1
  5 23  1  0
 23 24  2  0
 23 25  1  0
 25  2  1  0
 21  6  1  0
M  END
$$$$
