
     RDKit          3D

 25 26  0  0  0  0  0  0  0  0999 V2000
   16.2100    8.4181   14.7103 O   0  0  0  0  0  0  0  0  0  0  0  0
   15.3446    8.7828   15.5645 C   0  0  0  0  0  0  0  0  0  0  0  0
   15.1886    8.0716   16.7297 C   0  0  0  0  0  0  0  0  0  0  0  0
   14.2475    8.4709   17.6551 C   0  0  0  0  0  0  0  0  0  0  0  0
   13.4848    9.5593   17.4098 N   0  0  0  0  0  0  0  0  0  0  0  0
   12.4865    9.9777   18.3983 C   0  0  2  0  0  0  0  0  0  0  0  0
   12.7286    9.2726   19.5509 O   0  0  0  0  0  0  0  0  0  0  0  0
   11.6543    8.4665   19.8224 C   0  0  2  0  0  0  0  0  0  0  0  0
   11.9961    7.1954   20.5435 C   0  0  0  0  0  0  0  0  0  0  0  0
   10.8619    6.7098   21.1486 O   0  0  0  0  0  0  0  0  0  0  0  0
   10.7652    5.0305   21.1412 P   0  0  2  0  0  5  0  0  0  0  0  0
    9.9250    4.5498   19.9829 O   0  0  0  0  0  0  0  0  0  0  0  0
   10.0855    4.4333   22.5682 O   0  0  0  0  0  0  0  0  0  0  0  0
   12.3547    4.4191   21.0377 O   0  0  0  0  0  0  0  0  0  0  0  0
   13.0359    4.2026   22.5504 P   0  0  0  0  0  5  0  0  0  0  0  0
   12.8916    5.4917   23.3350 O   0  0  0  0  0  0  0  0  0  0  0  0
   14.6728    3.7970   22.4144 O   0  0  0  0  0  0  0  0  0  0  0  0
   12.2750    2.9415   23.3844 O   0  0  0  0  0  0  0  0  0  0  0  0
   11.0254    8.1848   18.4573 C   0  0  1  0  0  0  0  0  0  0  0  0
    9.7301    7.7342   18.5735 O   0  0  0  0  0  0  0  0  0  0  0  0
   11.1036    9.5983   17.9082 C   0  0  1  0  0  0  0  0  0  0  0  0
   10.1941   10.4020   18.5641 O   0  0  0  0  0  0  0  0  0  0  0  0
   13.6647   10.2322   16.2578 C   0  0  0  0  0  0  0  0  0  0  0  0
   12.9714   11.2365   16.0155 O   0  0  0  0  0  0  0  0  0  0  0  0
   14.5826    9.8544   15.3401 N   0  0  0  0  0  0  0  0  0  0  0  0
  1  2  2  0
  2  3  1  0
  3  4  2  0
  4  5  1  0
  6  5  1  6
  6  7  1  0
  7  8  1  0
  8  9  1  6
  9 10  1  0
 10 11  1  0
 11 12  2  0
 11 13  1  1
 11 14  1  0
 14 15  1  0
 15 16  2  0
 15 17  1  0
 15 18  1  0
  8 19  1  0
 19 20  1  1
 19 21  1  0
 21 22  1  1
  5 23  1  0
 23 24  2  0
 23 25  1  0
 25  2  1  0
 21  6  1  0
M  END
$$$$
