
     RDKit          3D

 25 26  0  0  0  0  0  0  0  0999 V2000
   16.1954    8.6358   14.8141 O   0  0  0  0  0  0  0  0  0  0  0  0
   15.3150    8.9694   15.6657 C   0  0  0  0  0  0  0  0  0  0  0  0
   15.1981    8.2689   16.8419 C   0  0  0  0  0  0  0  0  0  0  0  0
   14.2405    8.6344   17.7645 C   0  0  0  0  0  0  0  0  0  0  0  0
   13.4232    9.6791   17.5054 N   0  0  0  0  0  0  0  0  0  0  0  0
   12.4077   10.0616   18.4909 C   0  0  2  0  0  0  0  0  0  0  0  0
   12.6913    9.3914   19.6548 O   0  0  0  0  0  0  0  0  0  0  0  0
   11.6626    8.5343   19.9457 C   0  0  2  0  0  0  0  0  0  0  0  0
   12.0744    7.2965   20.6878 C   0  0  0  0  0  0  0  0  0  0  0  0
   10.9716    6.7669   21.3137 O   0  0  0  0  0  0  0  0  0  0  0  0
   10.8739    5.0917   21.1953 P   0  0  2  0  0  5  0  0  0  0  0  0
    9.9941    4.6894   20.0367 O   0  0  0  0  0  0  0  0  0  0  0  0
   10.2436    4.3976   22.6010 O   0  0  0  0  0  0  0  0  0  0  0  0
   12.4586    4.4919   20.9958 O   0  0  0  0  0  0  0  0  0  0  0  0
   13.1790    4.1418   22.4647 P   0  0  0  0  0  5  0  0  0  0  0  0
   13.3978    5.4392   23.2178 O   0  0  0  0  0  0  0  0  0  0  0  0
   14.6614    3.3607   22.2303 O   0  0  0  0  0  0  0  0  0  0  0  0
   12.2076    3.1065   23.3863 O   0  0  0  0  0  0  0  0  0  0  0  0
   11.0446    8.1947   18.5888 C   0  0  1  0  0  0  0  0  0  0  0  0
    9.7756    7.6779   18.7191 O   0  0  0  0  0  0  0  0  0  0  0  0
   11.0452    9.6002   18.0141 C   0  0  1  0  0  0  0  0  0  0  0  0
   10.0966   10.3661   18.6598 O   0  0  0  0  0  0  0  0  0  0  0  0
   13.5659   10.3426   16.3428 C   0  0  0  0  0  0  0  0  0  0  0  0
   12.8221   11.3069   16.0878 O   0  0  0  0  0  0  0  0  0  0  0  0
   14.4993    9.9976   15.4277 N   0  0  0  0  0  0  0  0  0  0  0  0
  1  2  2  0
  2  3  1  0
  3  4  2  0
  4  5  1  0
  6  5  1  6
  6  7  1  0
  7  8  1  0
  8  9  1  6
  9 10  1  0
 10 11  1  0
 11 12  2  0
 11 13  1  1
 11 14  1  0
 14 15  1  0
 15 16  2  0
 15 17  1  0
 15 18  1  0
  8 19  1  0
 19 20  1  1
 19 21  1  0
 21 22  1  1
  5 23  1  0
 23 24  2  0
 23 25  1  0
 25  2  1  0
 21  6  1  0
M  END
$$$$
