
     RDKit          3D

 25 26  0  0  0  0  0  0  0  0999 V2000
   16.1432    8.7088   14.5878 O   0  0  0  0  0  0  0  0  0  0  0  0
   15.3195    9.0072   15.5065 C   0  0  0  0  0  0  0  0  0  0  0  0
   15.1629    8.1712   16.5856 C   0  0  0  0  0  0  0  0  0  0  0  0
   14.2671    8.4988   17.5815 C   0  0  0  0  0  0  0  0  0  0  0  0
   13.5491    9.6400   17.4895 N   0  0  0  0  0  0  0  0  0  0  0  0
   12.5988    9.9815   18.5521 C   0  0  2  0  0  0  0  0  0  0  0  0
   12.8569    9.1535   19.6161 O   0  0  0  0  0  0  0  0  0  0  0  0
   11.7671    8.3545   19.8426 C   0  0  2  0  0  0  0  0  0  0  0  0
   12.0919    7.0060   20.4157 C   0  0  0  0  0  0  0  0  0  0  0  0
   10.9943    6.5371   21.0966 O   0  0  0  0  0  0  0  0  0  0  0  0
   10.7577    4.8803   20.9265 P   0  0  2  0  0  5  0  0  0  0  0  0
    9.9569    4.5810   19.6825 O   0  0  0  0  0  0  0  0  0  0  0  0
    9.9394    4.2227   22.2504 O   0  0  0  0  0  0  0  0  0  0  0  0
   12.2937    4.1409   20.8567 O   0  0  0  0  0  0  0  0  0  0  0  0
   12.9581    3.9456   22.3797 P   0  0  0  0  0  5  0  0  0  0  0  0
   14.4580    4.1431   22.2822 O   0  0  0  0  0  0  0  0  0  0  0  0
   12.6236    2.4005   22.9823 O   0  0  0  0  0  0  0  0  0  0  0  0
   12.3079    5.0615   23.4738 O   0  0  0  0  0  0  0  0  0  0  0  0
   11.0836    8.2346   18.4800 C   0  0  1  0  0  0  0  0  0  0  0  0
    9.7791    7.8114   18.5969 O   0  0  0  0  0  0  0  0  0  0  0  0
   11.1886    9.6947   18.0769 C   0  0  1  0  0  0  0  0  0  0  0  0
   10.3282   10.4514   18.8454 O   0  0  0  0  0  0  0  0  0  0  0  0
   13.7281   10.4354   16.4183 C   0  0  0  0  0  0  0  0  0  0  0  0
   13.0755   11.4899   16.3172 O   0  0  0  0  0  0  0  0  0  0  0  0
   14.6019   10.1293   15.4332 N   0  0  0  0  0  0  0  0  0  0  0  0
  1  2  2  0
  2  3  1  0
  3  4  2  0
  4  5  1  0
  6  5  1  6
  6  7  1  0
  7  8  1  0
  8  9  1  6
  9 10  1  0
 10 11  1  0
 11 12  2  0
 11 13  1  1
 11 14  1  0
 14 15  1  0
 15 16  2  0
 15 17  1  0
 15 18  1  0
  8 19  1  0
 19 20  1  1
 19 21  1  0
 21 22  1  1
  5 23  1  0
 23 24  2  0
 23 25  1  0
 25  2  1  0
 21  6  1  0
M  END
$$$$
