
     RDKit          3D

 25 26  0  0  0  0  0  0  0  0999 V2000
   16.1207    8.4865   14.5923 O   0  0  0  0  0  0  0  0  0  0  0  0
   15.2582    8.8252   15.4601 C   0  0  0  0  0  0  0  0  0  0  0  0
   15.1947    8.1595   16.6604 C   0  0  0  0  0  0  0  0  0  0  0  0
   14.2564    8.5304   17.6004 C   0  0  0  0  0  0  0  0  0  0  0  0
   13.4056    9.5463   17.3349 N   0  0  0  0  0  0  0  0  0  0  0  0
   12.4109    9.9348   18.3392 C   0  0  2  0  0  0  0  0  0  0  0  0
   12.6991    9.2460   19.4911 O   0  0  0  0  0  0  0  0  0  0  0  0
   11.6596    8.4036   19.7867 C   0  0  2  0  0  0  0  0  0  0  0  0
   12.0600    7.1502   20.5085 C   0  0  0  0  0  0  0  0  0  0  0  0
   11.0049    6.7264   21.2804 O   0  0  0  0  0  0  0  0  0  0  0  0
   10.7454    5.0660   21.2070 P   0  0  2  0  0  5  0  0  0  0  0  0
    9.8281    4.7198   20.0593 O   0  0  0  0  0  0  0  0  0  0  0  0
   10.0543    4.4739   22.6306 O   0  0  0  0  0  0  0  0  0  0  0  0
   12.2643    4.3106   21.0240 O   0  0  0  0  0  0  0  0  0  0  0  0
   13.0393    4.1115   22.4933 P   0  0  0  0  0  5  0  0  0  0  0  0
   14.4347    3.5779   22.2359 O   0  0  0  0  0  0  0  0  0  0  0  0
   12.1863    3.0295   23.4752 O   0  0  0  0  0  0  0  0  0  0  0  0
   13.1375    5.5784   23.3320 O   0  0  0  0  0  0  0  0  0  0  0  0
   11.0166    8.0910   18.4350 C   0  0  1  0  0  0  0  0  0  0  0  0
    9.7407    7.5949   18.5775 O   0  0  0  0  0  0  0  0  0  0  0  0
   11.0340    9.5029   17.8766 C   0  0  1  0  0  0  0  0  0  0  0  0
   10.1081   10.2775   18.5446 O   0  0  0  0  0  0  0  0  0  0  0  0
   13.4963   10.1761   16.1487 C   0  0  0  0  0  0  0  0  0  0  0  0
   12.7210   11.1136   15.8873 O   0  0  0  0  0  0  0  0  0  0  0  0
   14.4100    9.8254   15.2161 N   0  0  0  0  0  0  0  0  0  0  0  0
  1  2  2  0
  2  3  1  0
  3  4  2  0
  4  5  1  0
  6  5  1  6
  6  7  1  0
  7  8  1  0
  8  9  1  6
  9 10  1  0
 10 11  1  0
 11 12  2  0
 11 13  1  1
 11 14  1  0
 14 15  1  0
 15 16  2  0
 15 17  1  0
 15 18  1  0
  8 19  1  0
 19 20  1  1
 19 21  1  0
 21 22  1  1
  5 23  1  0
 23 24  2  0
 23 25  1  0
 25  2  1  0
 21  6  1  0
M  END
$$$$
