
     RDKit          3D

 25 26  0  0  0  0  0  0  0  0999 V2000
   16.3891    8.6439   14.9027 O   0  0  0  0  0  0  0  0  0  0  0  0
   15.4930    8.9541   15.7466 C   0  0  0  0  0  0  0  0  0  0  0  0
   15.3241    8.1940   16.8787 C   0  0  0  0  0  0  0  0  0  0  0  0
   14.3495    8.5342   17.7930 C   0  0  0  0  0  0  0  0  0  0  0  0
   13.5668    9.6131   17.5695 N   0  0  0  0  0  0  0  0  0  0  0  0
   12.5330    9.9685   18.5461 C   0  0  2  0  0  0  0  0  0  0  0  0
   12.7760    9.2417   19.6849 O   0  0  0  0  0  0  0  0  0  0  0  0
   11.7264    8.3904   19.9111 C   0  0  2  0  0  0  0  0  0  0  0  0
   12.0990    7.1135   20.6062 C   0  0  0  0  0  0  0  0  0  0  0  0
   11.0065    6.6506   21.2994 O   0  0  0  0  0  0  0  0  0  0  0  0
   10.7542    4.9966   21.1254 P   0  0  2  0  0  5  0  0  0  0  0  0
    9.8477    4.7160   19.9515 O   0  0  0  0  0  0  0  0  0  0  0  0
   10.0538    4.3186   22.5055 O   0  0  0  0  0  0  0  0  0  0  0  0
   12.2775    4.2586   20.9106 O   0  0  0  0  0  0  0  0  0  0  0  0
   13.0970    4.0940   22.3600 P   0  0  0  0  0  5  0  0  0  0  0  0
   12.9181    5.3665   23.1642 O   0  0  0  0  0  0  0  0  0  0  0  0
   14.7435    3.8185   22.0856 O   0  0  0  0  0  0  0  0  0  0  0  0
   12.5091    2.7757   23.2439 O   0  0  0  0  0  0  0  0  0  0  0  0
   11.1376    8.1231   18.5254 C   0  0  1  0  0  0  0  0  0  0  0  0
    9.8575    7.6232   18.6008 O   0  0  0  0  0  0  0  0  0  0  0  0
   11.1757    9.5528   18.0154 C   0  0  1  0  0  0  0  0  0  0  0  0
   10.2236   10.3052   18.6716 O   0  0  0  0  0  0  0  0  0  0  0  0
   13.7602   10.3349   16.4498 C   0  0  0  0  0  0  0  0  0  0  0  0
   13.0488   11.3313   16.2279 O   0  0  0  0  0  0  0  0  0  0  0  0
   14.7108   10.0154   15.5433 N   0  0  0  0  0  0  0  0  0  0  0  0
  1  2  2  0
  2  3  1  0
  3  4  2  0
  4  5  1  0
  6  5  1  6
  6  7  1  0
  7  8  1  0
  8  9  1  6
  9 10  1  0
 10 11  1  0
 11 12  2  0
 11 13  1  1
 11 14  1  0
 14 15  1  0
 15 16  2  0
 15 17  1  0
 15 18  1  0
  8 19  1  0
 19 20  1  1
 19 21  1  0
 21 22  1  1
  5 23  1  0
 23 24  2  0
 23 25  1  0
 25  2  1  0
 21  6  1  0
M  END
$$$$
