6M2B_EZO_holo_aligned_esmfold_protein
     RDKit          3D

 25 27  0  0  0  0  0  0  0  0999 V2000
   28.9318  -22.8311   27.7717 C   0  0  0  0  0  0  0  0  0  0  0  0
   28.3291  -22.8461   26.4629 N   0  0  0  0  0  0  0  0  0  0  0  0
   28.8034  -22.0793   25.4272 N   0  0  0  0  0  0  0  0  0  0  0  0
   28.9383  -22.7063   24.2762 C   0  0  0  0  0  0  0  0  0  0  0  0
   28.7859  -22.0092   23.0217 C   0  0  0  0  0  0  0  0  0  0  0  0
   27.4576  -21.8268   22.6027 C   0  0  0  0  0  0  0  0  0  0  0  0
   27.1632  -21.2576   21.3709 C   0  0  0  0  0  0  0  0  0  0  0  0
   28.2096  -20.8447   20.5587 C   0  0  0  0  0  0  0  0  0  0  0  0
   29.5218  -20.9944   20.9822 C   0  0  0  0  0  0  0  0  0  0  0  0
   29.8554  -21.6054   22.1964 C   0  0  0  0  0  0  0  0  0  0  0  0
   31.2941  -21.8126   22.5006 C   0  0  0  0  0  0  0  0  0  0  0  0
   31.6855  -21.8702   23.6573 O   0  0  0  0  0  0  0  0  0  0  0  0
   32.1433  -21.9364   21.4454 O   0  0  0  0  0  0  0  0  0  0  0  0
   27.2984  -23.7779   26.3649 C   0  0  0  0  0  0  0  0  0  0  0  0
   26.4505  -23.7844   25.3922 N   0  0  0  0  0  0  0  0  0  0  0  0
   25.7577  -24.9634   25.4519 C   0  0  0  0  0  0  0  0  0  0  0  0
   24.7368  -25.2585   24.5355 C   0  0  0  0  0  0  0  0  0  0  0  0
   24.6268  -26.6078   24.2318 C   0  0  0  0  0  0  0  0  0  0  0  0
   23.8762  -26.9851   23.1892 C   0  0  0  0  0  0  0  0  0  0  0  0
   23.2815  -26.0098   22.4356 C   0  0  0  0  0  0  0  0  0  0  0  0
   23.2660  -24.6707   22.7588 C   0  0  0  0  0  0  0  0  0  0  0  0
   23.9984  -24.2769   23.8456 C   0  0  0  0  0  0  0  0  0  0  0  0
   24.0067  -22.5744   24.1465 Cl  0  0  0  0  0  0  0  0  0  0  0  0
   26.0495  -25.8410   26.4521 C   0  0  0  0  0  0  0  0  0  0  0  0
   27.3457  -25.2494   27.3402 S   0  0  0  0  0  0  0  0  0  0  0  0
  1  2  1  0
  2  3  1  0
  3  4  2  0
  4  5  1  0
  5  6  2  0
  6  7  1  0
  7  8  2  0
  8  9  1  0
  9 10  2  0
 10 11  1  0
 11 12  2  0
 11 13  1  0
  2 14  1  0
 14 15  2  0
 15 16  1  0
 16 17  1  0
 17 18  2  0
 18 19  1  0
 19 20  2  0
 20 21  1  0
 21 22  2  0
 22 23  1  0
 16 24  2  0
 24 25  1  0
 10  5  1  0
 25 14  1  0
 22 17  1  0
M  END
