
     RDKit          3D

 25 27  0  0  0  0  0  0  0  0999 V2000
   29.7736  -22.9129   26.2893 C   0  0  0  0  0  0  0  0  0  0  0  0
   29.0269  -23.0075   25.0663 N   0  0  0  0  0  0  0  0  0  0  0  0
   29.6762  -22.9730   23.8516 N   0  0  0  0  0  0  0  0  0  0  0  0
   30.7822  -22.3022   23.6385 C   0  0  0  0  0  0  0  0  0  0  0  0
   31.3118  -22.1512   22.2958 C   0  0  0  0  0  0  0  0  0  0  0  0
   30.4405  -22.3269   21.2019 C   0  0  0  0  0  0  0  0  0  0  0  0
   30.8799  -22.1973   19.9143 C   0  0  0  0  0  0  0  0  0  0  0  0
   32.2042  -21.8870   19.6387 C   0  0  0  0  0  0  0  0  0  0  0  0
   33.0251  -21.7225   20.7156 C   0  0  0  0  0  0  0  0  0  0  0  0
   32.6082  -21.8481   22.0558 C   0  0  0  0  0  0  0  0  0  0  0  0
   33.5763  -21.6491   23.1005 C   0  0  0  0  0  0  0  0  0  0  0  0
   33.1604  -21.7212   24.3091 O   0  0  0  0  0  0  0  0  0  0  0  0
   34.9074  -21.3882   22.9718 O   0  0  0  0  0  0  0  0  0  0  0  0
   27.5845  -23.1404   25.1513 C   0  0  0  0  0  0  0  0  0  0  0  0
   26.7171  -23.2002   24.1803 N   0  0  0  0  0  0  0  0  0  0  0  0
   25.4345  -23.3202   24.4214 C   0  0  0  0  0  0  0  0  0  0  0  0
   24.4749  -23.4269   23.2895 C   0  0  0  0  0  0  0  0  0  0  0  0
   23.6304  -24.5490   23.2096 C   0  0  0  0  0  0  0  0  0  0  0  0
   22.7484  -24.7363   22.1781 C   0  0  0  0  0  0  0  0  0  0  0  0
   22.6631  -23.8153   21.1742 C   0  0  0  0  0  0  0  0  0  0  0  0
   23.4728  -22.7151   21.2261 C   0  0  0  0  0  0  0  0  0  0  0  0
   24.3781  -22.5286   22.2889 C   0  0  0  0  0  0  0  0  0  0  0  0
   25.4109  -21.1140   22.2375 Cl  0  0  0  0  0  0  0  0  0  0  0  0
   25.0596  -23.3799   25.7284 C   0  0  0  0  0  0  0  0  0  0  0  0
   26.5940  -23.2561   26.5313 S   0  0  0  0  0  0  0  0  0  0  0  0
  1  2  1  0
  2  3  1  0
  3  4  2  0
  4  5  1  0
  5  6  2  0
  6  7  1  0
  7  8  2  0
  8  9  1  0
  9 10  2  0
 10 11  1  0
 11 12  2  0
 11 13  1  0
  2 14  1  0
 14 15  2  0
 15 16  1  0
 16 17  1  0
 17 18  2  0
 18 19  1  0
 19 20  2  0
 20 21  1  0
 21 22  2  0
 22 23  1  0
 16 24  2  0
 24 25  1  0
 10  5  1  0
 25 14  1  0
 22 17  1  0
M  END
$$$$
