
     RDKit          3D

 25 27  0  0  0  0  0  0  0  0999 V2000
   25.8530  -21.0947   21.3033 C   0  0  0  0  0  0  0  0  0  0  0  0
   25.7477  -21.8302   22.5322 N   0  0  0  0  0  0  0  0  0  0  0  0
   26.7507  -21.7562   23.4739 N   0  0  0  0  0  0  0  0  0  0  0  0
   27.9984  -22.0780   23.2325 C   0  0  0  0  0  0  0  0  0  0  0  0
   28.9477  -22.2364   24.3187 C   0  0  0  0  0  0  0  0  0  0  0  0
   28.4553  -22.4859   25.6156 C   0  0  0  0  0  0  0  0  0  0  0  0
   29.2993  -22.6446   26.6788 C   0  0  0  0  0  0  0  0  0  0  0  0
   30.6754  -22.5653   26.5172 C   0  0  0  0  0  0  0  0  0  0  0  0
   31.1243  -22.3231   25.2521 C   0  0  0  0  0  0  0  0  0  0  0  0
   30.2851  -22.1542   24.1327 C   0  0  0  0  0  0  0  0  0  0  0  0
   30.8875  -21.9033   22.8511 C   0  0  0  0  0  0  0  0  0  0  0  0
   30.1013  -21.7011   21.8612 O   0  0  0  0  0  0  0  0  0  0  0  0
   32.2139  -21.8511   22.5437 O   0  0  0  0  0  0  0  0  0  0  0  0
   24.5647  -22.6423   22.7469 C   0  0  0  0  0  0  0  0  0  0  0  0
   24.4548  -23.7531   23.4200 N   0  0  0  0  0  0  0  0  0  0  0  0
   23.3057  -24.3751   23.5217 C   0  0  0  0  0  0  0  0  0  0  0  0
   23.2062  -25.6192   24.3314 C   0  0  0  0  0  0  0  0  0  0  0  0
   24.1112  -25.8238   25.3885 C   0  0  0  0  0  0  0  0  0  0  0  0
   24.1066  -26.9601   26.1539 C   0  0  0  0  0  0  0  0  0  0  0  0
   23.2001  -27.9499   25.9049 C   0  0  0  0  0  0  0  0  0  0  0  0
   22.3088  -27.7777   24.8827 C   0  0  0  0  0  0  0  0  0  0  0  0
   22.3192  -26.6075   24.0990 C   0  0  0  0  0  0  0  0  0  0  0  0
   21.1725  -26.5043   22.7781 Cl  0  0  0  0  0  0  0  0  0  0  0  0
   22.2418  -23.8037   22.8939 C   0  0  0  0  0  0  0  0  0  0  0  0
   22.9746  -22.3958   22.1900 S   0  0  0  0  0  0  0  0  0  0  0  0
  1  2  1  0
  2  3  1  0
  3  4  2  0
  4  5  1  0
  5  6  2  0
  6  7  1  0
  7  8  2  0
  8  9  1  0
  9 10  2  0
 10 11  1  0
 11 12  2  0
 11 13  1  0
  2 14  1  0
 14 15  2  0
 15 16  1  0
 16 17  1  0
 17 18  2  0
 18 19  1  0
 19 20  2  0
 20 21  1  0
 21 22  2  0
 22 23  1  0
 16 24  2  0
 24 25  1  0
 10  5  1  0
 25 14  1  0
 22 17  1  0
M  END
$$$$
