
     RDKit          3D

 25 27  0  0  0  0  0  0  0  0999 V2000
   29.8008  -22.8309   26.3419 C   0  0  0  0  0  0  0  0  0  0  0  0
   29.0639  -22.9954   25.1204 N   0  0  0  0  0  0  0  0  0  0  0  0
   29.7202  -23.0036   23.9090 N   0  0  0  0  0  0  0  0  0  0  0  0
   30.7239  -22.2108   23.6219 C   0  0  0  0  0  0  0  0  0  0  0  0
   31.1672  -22.0412   22.2504 C   0  0  0  0  0  0  0  0  0  0  0  0
   30.2131  -22.1268   21.2163 C   0  0  0  0  0  0  0  0  0  0  0  0
   30.5691  -21.9755   19.9055 C   0  0  0  0  0  0  0  0  0  0  0  0
   31.8872  -21.7314   19.5463 C   0  0  0  0  0  0  0  0  0  0  0  0
   32.7892  -21.6535   20.5666 C   0  0  0  0  0  0  0  0  0  0  0  0
   32.4595  -21.8040   21.9284 C   0  0  0  0  0  0  0  0  0  0  0  0
   33.5079  -21.6990   22.9072 C   0  0  0  0  0  0  0  0  0  0  0  0
   33.1651  -21.7187   24.1405 O   0  0  0  0  0  0  0  0  0  0  0  0
   34.8478  -21.5784   22.6913 O   0  0  0  0  0  0  0  0  0  0  0  0
   27.6238  -23.1519   25.2034 C   0  0  0  0  0  0  0  0  0  0  0  0
   26.7597  -23.2349   24.2311 N   0  0  0  0  0  0  0  0  0  0  0  0
   25.4788  -23.3745   24.4704 C   0  0  0  0  0  0  0  0  0  0  0  0
   24.5238  -23.5072   23.3374 C   0  0  0  0  0  0  0  0  0  0  0  0
   23.6830  -24.6332   23.2773 C   0  0  0  0  0  0  0  0  0  0  0  0
   22.8054  -24.8443   22.2467 C   0  0  0  0  0  0  0  0  0  0  0  0
   22.7211  -23.9443   21.2238 C   0  0  0  0  0  0  0  0  0  0  0  0
   23.5274  -22.8408   21.2562 C   0  0  0  0  0  0  0  0  0  0  0  0
   24.4281  -22.6299   22.3182 C   0  0  0  0  0  0  0  0  0  0  0  0
   25.4569  -21.2135   22.2418 Cl  0  0  0  0  0  0  0  0  0  0  0  0
   25.1019  -23.4293   25.7771 C   0  0  0  0  0  0  0  0  0  0  0  0
   26.6321  -23.2725   26.5823 S   0  0  0  0  0  0  0  0  0  0  0  0
  1  2  1  0
  2  3  1  0
  3  4  2  0
  4  5  1  0
  5  6  2  0
  6  7  1  0
  7  8  2  0
  8  9  1  0
  9 10  2  0
 10 11  1  0
 11 12  2  0
 11 13  1  0
  2 14  1  0
 14 15  2  0
 15 16  1  0
 16 17  1  0
 17 18  2  0
 18 19  1  0
 19 20  2  0
 20 21  1  0
 21 22  2  0
 22 23  1  0
 16 24  2  0
 24 25  1  0
 10  5  1  0
 25 14  1  0
 22 17  1  0
M  END
$$$$
