
     RDKit          3D

 25 27  0  0  0  0  0  0  0  0999 V2000
   26.4715  -21.1005   22.2804 C   0  0  0  0  0  0  0  0  0  0  0  0
   27.3819  -22.0513   22.8543 N   0  0  0  0  0  0  0  0  0  0  0  0
   28.7353  -21.9470   22.6180 N   0  0  0  0  0  0  0  0  0  0  0  0
   29.6529  -22.3069   23.4823 C   0  0  0  0  0  0  0  0  0  0  0  0
   31.0626  -22.1357   23.1828 C   0  0  0  0  0  0  0  0  0  0  0  0
   31.5013  -22.3355   21.8583 C   0  0  0  0  0  0  0  0  0  0  0  0
   32.8158  -22.1886   21.5144 C   0  0  0  0  0  0  0  0  0  0  0  0
   33.7674  -21.8364   22.4611 C   0  0  0  0  0  0  0  0  0  0  0  0
   33.3155  -21.6493   23.7345 C   0  0  0  0  0  0  0  0  0  0  0  0
   31.9693  -21.7916   24.1260 C   0  0  0  0  0  0  0  0  0  0  0  0
   31.6245  -21.5654   25.5038 C   0  0  0  0  0  0  0  0  0  0  0  0
   30.3894  -21.6666   25.8251 O   0  0  0  0  0  0  0  0  0  0  0  0
   32.4566  -21.2505   26.5357 O   0  0  0  0  0  0  0  0  0  0  0  0
   26.8364  -23.1110   23.6816 C   0  0  0  0  0  0  0  0  0  0  0  0
   25.7184  -23.7638   23.5303 N   0  0  0  0  0  0  0  0  0  0  0  0
   25.3606  -24.7027   24.3718 C   0  0  0  0  0  0  0  0  0  0  0  0
   24.0979  -25.4567   24.1472 C   0  0  0  0  0  0  0  0  0  0  0  0
   22.9908  -24.7904   23.5914 C   0  0  0  0  0  0  0  0  0  0  0  0
   21.7839  -25.4066   23.3900 C   0  0  0  0  0  0  0  0  0  0  0  0
   21.6190  -26.7178   23.7320 C   0  0  0  0  0  0  0  0  0  0  0  0
   22.6784  -27.3898   24.2750 C   0  0  0  0  0  0  0  0  0  0  0  0
   23.9164  -26.7504   24.4802 C   0  0  0  0  0  0  0  0  0  0  0  0
   25.1968  -27.6812   25.2318 Cl  0  0  0  0  0  0  0  0  0  0  0  0
   26.2118  -24.9588   25.4025 C   0  0  0  0  0  0  0  0  0  0  0  0
   27.4825  -23.8178   25.0895 S   0  0  0  0  0  0  0  0  0  0  0  0
  1  2  1  0
  2  3  1  0
  3  4  2  0
  4  5  1  0
  5  6  2  0
  6  7  1  0
  7  8  2  0
  8  9  1  0
  9 10  2  0
 10 11  1  0
 11 12  2  0
 11 13  1  0
  2 14  1  0
 14 15  2  0
 15 16  1  0
 16 17  1  0
 17 18  2  0
 18 19  1  0
 19 20  2  0
 20 21  1  0
 21 22  2  0
 22 23  1  0
 16 24  2  0
 24 25  1  0
 10  5  1  0
 25 14  1  0
 22 17  1  0
M  END
$$$$
