
     RDKit          3D

 25 27  0  0  0  0  0  0  0  0999 V2000
   29.6267  -23.2468   27.0913 C   0  0  0  0  0  0  0  0  0  0  0  0
   28.6431  -23.2858   26.0457 N   0  0  0  0  0  0  0  0  0  0  0  0
   28.7927  -22.5030   24.9218 N   0  0  0  0  0  0  0  0  0  0  0  0
   29.8204  -22.5843   24.1121 C   0  0  0  0  0  0  0  0  0  0  0  0
   29.7453  -22.0573   22.7620 C   0  0  0  0  0  0  0  0  0  0  0  0
   28.4797  -21.9358   22.1534 C   0  0  0  0  0  0  0  0  0  0  0  0
   28.3444  -21.4461   20.8846 C   0  0  0  0  0  0  0  0  0  0  0  0
   29.4527  -21.0501   20.1492 C   0  0  0  0  0  0  0  0  0  0  0  0
   30.6645  -21.1784   20.7623 C   0  0  0  0  0  0  0  0  0  0  0  0
   30.8427  -21.6785   22.0676 C   0  0  0  0  0  0  0  0  0  0  0  0
   32.1771  -21.7624   22.5975 C   0  0  0  0  0  0  0  0  0  0  0  0
   32.3092  -22.2089   23.7900 O   0  0  0  0  0  0  0  0  0  0  0  0
   33.3456  -21.4219   21.9850 O   0  0  0  0  0  0  0  0  0  0  0  0
   27.5019  -24.1667   26.2095 C   0  0  0  0  0  0  0  0  0  0  0  0
   26.5171  -24.3803   25.3827 N   0  0  0  0  0  0  0  0  0  0  0  0
   25.5500  -25.2138   25.6788 C   0  0  0  0  0  0  0  0  0  0  0  0
   24.4623  -25.4655   24.6954 C   0  0  0  0  0  0  0  0  0  0  0  0
   23.8378  -26.7256   24.6710 C   0  0  0  0  0  0  0  0  0  0  0  0
   22.8559  -27.0449   23.7705 C   0  0  0  0  0  0  0  0  0  0  0  0
   22.4465  -26.1248   22.8489 C   0  0  0  0  0  0  0  0  0  0  0  0
   23.0370  -24.8919   22.8494 C   0  0  0  0  0  0  0  0  0  0  0  0
   24.0465  -24.5701   23.7774 C   0  0  0  0  0  0  0  0  0  0  0  0
   24.7792  -22.9825   23.6628 Cl  0  0  0  0  0  0  0  0  0  0  0  0
   25.6286  -25.8404   26.8845 C   0  0  0  0  0  0  0  0  0  0  0  0
   27.1035  -25.1796   27.5189 S   0  0  0  0  0  0  0  0  0  0  0  0
  1  2  1  0
  2  3  1  0
  3  4  2  0
  4  5  1  0
  5  6  2  0
  6  7  1  0
  7  8  2  0
  8  9  1  0
  9 10  2  0
 10 11  1  0
 11 12  2  0
 11 13  1  0
  2 14  1  0
 14 15  2  0
 15 16  1  0
 16 17  1  0
 17 18  2  0
 18 19  1  0
 19 20  2  0
 20 21  1  0
 21 22  2  0
 22 23  1  0
 16 24  2  0
 24 25  1  0
 10  5  1  0
 25 14  1  0
 22 17  1  0
M  END
$$$$
