
     RDKit          3D

 25 27  0  0  0  0  0  0  0  0999 V2000
   32.1816  -22.3850   25.2759 C   0  0  0  0  0  0  0  0  0  0  0  0
   31.1677  -21.9396   24.3617 N   0  0  0  0  0  0  0  0  0  0  0  0
   31.5049  -21.1613   23.2760 N   0  0  0  0  0  0  0  0  0  0  0  0
   32.1755  -21.6088   22.2423 C   0  0  0  0  0  0  0  0  0  0  0  0
   32.4166  -20.7601   21.0899 C   0  0  0  0  0  0  0  0  0  0  0  0
   31.5111  -19.7144   20.8194 C   0  0  0  0  0  0  0  0  0  0  0  0
   31.6847  -18.8817   19.7497 C   0  0  0  0  0  0  0  0  0  0  0  0
   32.7627  -19.0378   18.8898 C   0  0  0  0  0  0  0  0  0  0  0  0
   33.6230  -20.0573   19.1750 C   0  0  0  0  0  0  0  0  0  0  0  0
   33.4765  -20.9350   20.2676 C   0  0  0  0  0  0  0  0  0  0  0  0
   34.4563  -21.9707   20.4562 C   0  0  0  0  0  0  0  0  0  0  0  0
   34.4084  -22.6334   21.5504 O   0  0  0  0  0  0  0  0  0  0  0  0
   35.4513  -22.3488   19.6055 O   0  0  0  0  0  0  0  0  0  0  0  0
   29.7943  -22.3326   24.6153 C   0  0  0  0  0  0  0  0  0  0  0  0
   28.7572  -22.2049   23.8362 N   0  0  0  0  0  0  0  0  0  0  0  0
   27.5699  -22.6121   24.2132 C   0  0  0  0  0  0  0  0  0  0  0  0
   26.4149  -22.4889   23.2835 C   0  0  0  0  0  0  0  0  0  0  0  0
   26.3783  -21.4169   22.3735 C   0  0  0  0  0  0  0  0  0  0  0  0
   25.3313  -21.2152   21.5131 C   0  0  0  0  0  0  0  0  0  0  0  0
   24.2681  -22.0713   21.5157 C   0  0  0  0  0  0  0  0  0  0  0  0
   24.2771  -23.1218   22.3906 C   0  0  0  0  0  0  0  0  0  0  0  0
   25.3560  -23.3232   23.2732 C   0  0  0  0  0  0  0  0  0  0  0  0
   25.2495  -24.6666   24.3932 Cl  0  0  0  0  0  0  0  0  0  0  0  0
   27.4781  -23.1719   25.4504 C   0  0  0  0  0  0  0  0  0  0  0  0
   29.1238  -23.0719   25.9948 S   0  0  0  0  0  0  0  0  0  0  0  0
  1  2  1  0
  2  3  1  0
  3  4  2  0
  4  5  1  0
  5  6  2  0
  6  7  1  0
  7  8  2  0
  8  9  1  0
  9 10  2  0
 10 11  1  0
 11 12  2  0
 11 13  1  0
  2 14  1  0
 14 15  2  0
 15 16  1  0
 16 17  1  0
 17 18  2  0
 18 19  1  0
 19 20  2  0
 20 21  1  0
 21 22  2  0
 22 23  1  0
 16 24  2  0
 24 25  1  0
 10  5  1  0
 25 14  1  0
 22 17  1  0
M  END
$$$$
