
     RDKit          3D

 25 27  0  0  0  0  0  0  0  0999 V2000
   29.7202  -22.8666   26.6449 C   0  0  0  0  0  0  0  0  0  0  0  0
   29.0026  -22.9812   25.4062 N   0  0  0  0  0  0  0  0  0  0  0  0
   29.6861  -23.1102   24.2169 N   0  0  0  0  0  0  0  0  0  0  0  0
   30.7427  -22.3992   23.9061 C   0  0  0  0  0  0  0  0  0  0  0  0
   31.0929  -22.1575   22.5186 C   0  0  0  0  0  0  0  0  0  0  0  0
   30.1030  -22.3349   21.5309 C   0  0  0  0  0  0  0  0  0  0  0  0
   30.3718  -22.1222   20.2080 C   0  0  0  0  0  0  0  0  0  0  0  0
   31.6334  -21.7227   19.7900 C   0  0  0  0  0  0  0  0  0  0  0  0
   32.5719  -21.5587   20.7664 C   0  0  0  0  0  0  0  0  0  0  0  0
   32.3317  -21.7684   22.1389 C   0  0  0  0  0  0  0  0  0  0  0  0
   33.4101  -21.5599   23.0673 C   0  0  0  0  0  0  0  0  0  0  0  0
   33.1476  -21.6930   24.3132 O   0  0  0  0  0  0  0  0  0  0  0  0
   34.7033  -21.2321   22.7905 O   0  0  0  0  0  0  0  0  0  0  0  0
   27.5524  -22.9582   25.4485 C   0  0  0  0  0  0  0  0  0  0  0  0
   26.7089  -23.2326   24.4934 N   0  0  0  0  0  0  0  0  0  0  0  0
   25.4149  -23.1642   24.6894 C   0  0  0  0  0  0  0  0  0  0  0  0
   24.4793  -23.5235   23.5899 C   0  0  0  0  0  0  0  0  0  0  0  0
   23.9484  -24.8251   23.5388 C   0  0  0  0  0  0  0  0  0  0  0  0
   23.1116  -25.2416   22.5372 C   0  0  0  0  0  0  0  0  0  0  0  0
   22.7613  -24.3825   21.5359 C   0  0  0  0  0  0  0  0  0  0  0  0
   23.2634  -23.1112   21.5602 C   0  0  0  0  0  0  0  0  0  0  0  0
   24.1239  -22.6893   22.5923 C   0  0  0  0  0  0  0  0  0  0  0  0
   24.7575  -21.0579   22.5057 Cl  0  0  0  0  0  0  0  0  0  0  0  0
   25.0019  -22.7960   25.9330 C   0  0  0  0  0  0  0  0  0  0  0  0
   26.5197  -22.5685   26.7449 S   0  0  0  0  0  0  0  0  0  0  0  0
  1  2  1  0
  2  3  1  0
  3  4  2  0
  4  5  1  0
  5  6  2  0
  6  7  1  0
  7  8  2  0
  8  9  1  0
  9 10  2  0
 10 11  1  0
 11 12  2  0
 11 13  1  0
  2 14  1  0
 14 15  2  0
 15 16  1  0
 16 17  1  0
 17 18  2  0
 18 19  1  0
 19 20  2  0
 20 21  1  0
 21 22  2  0
 22 23  1  0
 16 24  2  0
 24 25  1  0
 10  5  1  0
 25 14  1  0
 22 17  1  0
M  END
$$$$
