
     RDKit          3D

 25 27  0  0  0  0  0  0  0  0999 V2000
   27.6156  -21.7350   22.0094 C   0  0  0  0  0  0  0  0  0  0  0  0
   28.1567  -22.2075   23.2529 N   0  0  0  0  0  0  0  0  0  0  0  0
   29.4011  -21.7903   23.6720 N   0  0  0  0  0  0  0  0  0  0  0  0
   30.5155  -22.0942   23.0521 C   0  0  0  0  0  0  0  0  0  0  0  0
   31.7931  -21.6097   23.5413 C   0  0  0  0  0  0  0  0  0  0  0  0
   31.9052  -21.2532   24.9004 C   0  0  0  0  0  0  0  0  0  0  0  0
   33.0817  -20.7910   25.4200 C   0  0  0  0  0  0  0  0  0  0  0  0
   34.2107  -20.6564   24.6243 C   0  0  0  0  0  0  0  0  0  0  0  0
   34.0741  -21.0085   23.3135 C   0  0  0  0  0  0  0  0  0  0  0  0
   32.8783  -21.4884   22.7428 C   0  0  0  0  0  0  0  0  0  0  0  0
   32.8682  -21.8249   21.3446 C   0  0  0  0  0  0  0  0  0  0  0  0
   31.7368  -22.1052   20.8154 O   0  0  0  0  0  0  0  0  0  0  0  0
   33.9270  -21.8864   20.4892 O   0  0  0  0  0  0  0  0  0  0  0  0
   27.3591  -23.1260   24.0436 C   0  0  0  0  0  0  0  0  0  0  0  0
   26.2285  -23.6943   23.7311 N   0  0  0  0  0  0  0  0  0  0  0  0
   25.6240  -24.5074   24.5624 C   0  0  0  0  0  0  0  0  0  0  0  0
   24.3555  -25.1713   24.1582 C   0  0  0  0  0  0  0  0  0  0  0  0
   23.4385  -24.4681   23.3561 C   0  0  0  0  0  0  0  0  0  0  0  0
   22.2338  -24.9979   22.9753 C   0  0  0  0  0  0  0  0  0  0  0  0
   21.8818  -26.2550   23.3742 C   0  0  0  0  0  0  0  0  0  0  0  0
   22.7539  -26.9611   24.1551 C   0  0  0  0  0  0  0  0  0  0  0  0
   23.9906  -26.4105   24.5439 C   0  0  0  0  0  0  0  0  0  0  0  0
   25.0155  -27.3730   25.5896 Cl  0  0  0  0  0  0  0  0  0  0  0  0
   26.2349  -24.7262   25.7588 C   0  0  0  0  0  0  0  0  0  0  0  0
   27.6523  -23.7351   25.6064 S   0  0  0  0  0  0  0  0  0  0  0  0
  1  2  1  0
  2  3  1  0
  3  4  2  0
  4  5  1  0
  5  6  2  0
  6  7  1  0
  7  8  2  0
  8  9  1  0
  9 10  2  0
 10 11  1  0
 11 12  2  0
 11 13  1  0
  2 14  1  0
 14 15  2  0
 15 16  1  0
 16 17  1  0
 17 18  2  0
 18 19  1  0
 19 20  2  0
 20 21  1  0
 21 22  2  0
 22 23  1  0
 16 24  2  0
 24 25  1  0
 10  5  1  0
 25 14  1  0
 22 17  1  0
M  END
$$$$
