
     RDKit          3D

 25 27  0  0  0  0  0  0  0  0999 V2000
   33.7615  -22.0738   24.7186 C   0  0  0  0  0  0  0  0  0  0  0  0
   32.7167  -21.5896   23.8605 N   0  0  0  0  0  0  0  0  0  0  0  0
   33.0193  -20.7855   22.7834 N   0  0  0  0  0  0  0  0  0  0  0  0
   33.2481  -21.2441   21.5768 C   0  0  0  0  0  0  0  0  0  0  0  0
   33.4443  -20.3355   20.4622 C   0  0  0  0  0  0  0  0  0  0  0  0
   32.8763  -19.0474   20.5323 C   0  0  0  0  0  0  0  0  0  0  0  0
   33.0266  -18.1473   19.5149 C   0  0  0  0  0  0  0  0  0  0  0  0
   33.7464  -18.4719   18.3737 C   0  0  0  0  0  0  0  0  0  0  0  0
   34.2849  -19.7245   18.3324 C   0  0  0  0  0  0  0  0  0  0  0  0
   34.1511  -20.6784   19.3609 C   0  0  0  0  0  0  0  0  0  0  0  0
   34.7695  -21.9658   19.1919 C   0  0  0  0  0  0  0  0  0  0  0  0
   34.7521  -22.7626   20.1938 O   0  0  0  0  0  0  0  0  0  0  0  0
   35.3854  -22.4611   18.0820 O   0  0  0  0  0  0  0  0  0  0  0  0
   31.3496  -21.9716   24.1610 C   0  0  0  0  0  0  0  0  0  0  0  0
   30.2864  -21.8290   23.4205 N   0  0  0  0  0  0  0  0  0  0  0  0
   29.1097  -22.2277   23.8374 C   0  0  0  0  0  0  0  0  0  0  0  0
   27.9232  -22.0874   22.9508 C   0  0  0  0  0  0  0  0  0  0  0  0
   28.0275  -21.3097   21.7834 C   0  0  0  0  0  0  0  0  0  0  0  0
   26.9694  -21.1028   20.9380 C   0  0  0  0  0  0  0  0  0  0  0  0
   25.7540  -21.6601   21.2130 C   0  0  0  0  0  0  0  0  0  0  0  0
   25.6240  -22.4203   22.3417 C   0  0  0  0  0  0  0  0  0  0  0  0
   26.7154  -22.6287   23.2072 C   0  0  0  0  0  0  0  0  0  0  0  0
   26.4345  -23.5734   24.6560 Cl  0  0  0  0  0  0  0  0  0  0  0  0
   29.0572  -22.7952   25.0734 C   0  0  0  0  0  0  0  0  0  0  0  0
   30.7222  -22.7142   25.5589 S   0  0  0  0  0  0  0  0  0  0  0  0
  1  2  1  0
  2  3  1  0
  3  4  2  0
  4  5  1  0
  5  6  2  0
  6  7  1  0
  7  8  2  0
  8  9  1  0
  9 10  2  0
 10 11  1  0
 11 12  2  0
 11 13  1  0
  2 14  1  0
 14 15  2  0
 15 16  1  0
 16 17  1  0
 17 18  2  0
 18 19  1  0
 19 20  2  0
 20 21  1  0
 21 22  2  0
 22 23  1  0
 16 24  2  0
 24 25  1  0
 10  5  1  0
 25 14  1  0
 22 17  1  0
M  END
$$$$
