
     RDKit          3D

 25 27  0  0  0  0  0  0  0  0999 V2000
   30.2988  -22.9929   26.3818 C   0  0  0  0  0  0  0  0  0  0  0  0
   29.8185  -22.9054   25.0313 N   0  0  0  0  0  0  0  0  0  0  0  0
   30.7003  -22.9727   23.9748 N   0  0  0  0  0  0  0  0  0  0  0  0
   31.7092  -22.1504   23.8178 C   0  0  0  0  0  0  0  0  0  0  0  0
   32.0989  -21.6974   22.4953 C   0  0  0  0  0  0  0  0  0  0  0  0
   31.2430  -21.9686   21.4086 C   0  0  0  0  0  0  0  0  0  0  0  0
   31.5549  -21.5674   20.1399 C   0  0  0  0  0  0  0  0  0  0  0  0
   32.7294  -20.8765   19.8771 C   0  0  0  0  0  0  0  0  0  0  0  0
   33.5388  -20.6276   20.9466 C   0  0  0  0  0  0  0  0  0  0  0  0
   33.2506  -21.0254   22.2673 C   0  0  0  0  0  0  0  0  0  0  0  0
   34.1904  -20.6995   23.3060 C   0  0  0  0  0  0  0  0  0  0  0  0
   33.8887  -21.0444   24.5014 O   0  0  0  0  0  0  0  0  0  0  0  0
   35.3862  -20.0580   23.1840 O   0  0  0  0  0  0  0  0  0  0  0  0
   28.3920  -22.7472   24.8190 C   0  0  0  0  0  0  0  0  0  0  0  0
   27.7577  -22.5285   23.7015 N   0  0  0  0  0  0  0  0  0  0  0  0
   26.4531  -22.4065   23.6734 C   0  0  0  0  0  0  0  0  0  0  0  0
   25.7567  -22.1982   22.3753 C   0  0  0  0  0  0  0  0  0  0  0  0
   26.4894  -22.3029   21.1792 C   0  0  0  0  0  0  0  0  0  0  0  0
   25.9272  -22.0875   19.9485 C   0  0  0  0  0  0  0  0  0  0  0  0
   24.6066  -21.7570   19.8473 C   0  0  0  0  0  0  0  0  0  0  0  0
   23.8705  -21.6476   20.9941 C   0  0  0  0  0  0  0  0  0  0  0  0
   24.4546  -21.8696   22.2564 C   0  0  0  0  0  0  0  0  0  0  0  0
   23.4417  -21.6526   23.6696 Cl  0  0  0  0  0  0  0  0  0  0  0  0
   25.8011  -22.5206   24.8626 C   0  0  0  0  0  0  0  0  0  0  0  0
   27.1232  -22.7968   25.9535 S   0  0  0  0  0  0  0  0  0  0  0  0
  1  2  1  0
  2  3  1  0
  3  4  2  0
  4  5  1  0
  5  6  2  0
  6  7  1  0
  7  8  2  0
  8  9  1  0
  9 10  2  0
 10 11  1  0
 11 12  2  0
 11 13  1  0
  2 14  1  0
 14 15  2  0
 15 16  1  0
 16 17  1  0
 17 18  2  0
 18 19  1  0
 19 20  2  0
 20 21  1  0
 21 22  2  0
 22 23  1  0
 16 24  2  0
 24 25  1  0
 10  5  1  0
 25 14  1  0
 22 17  1  0
M  END
$$$$
