
     RDKit          3D

 25 27  0  0  0  0  0  0  0  0999 V2000
   29.4149  -22.9430   26.4262 C   0  0  0  0  0  0  0  0  0  0  0  0
   28.7878  -23.1129   25.1456 N   0  0  0  0  0  0  0  0  0  0  0  0
   29.5331  -23.0251   23.9901 N   0  0  0  0  0  0  0  0  0  0  0  0
   30.6278  -22.3115   23.8848 C   0  0  0  0  0  0  0  0  0  0  0  0
   31.2666  -22.1179   22.5962 C   0  0  0  0  0  0  0  0  0  0  0  0
   30.5124  -22.3442   21.4271 C   0  0  0  0  0  0  0  0  0  0  0  0
   31.0580  -22.1782   20.1851 C   0  0  0  0  0  0  0  0  0  0  0  0
   32.3784  -21.7795   20.0318 C   0  0  0  0  0  0  0  0  0  0  0  0
   33.0849  -21.5676   21.1793 C   0  0  0  0  0  0  0  0  0  0  0  0
   32.5565  -21.7285   22.4757 C   0  0  0  0  0  0  0  0  0  0  0  0
   33.4099  -21.4722   23.6047 C   0  0  0  0  0  0  0  0  0  0  0  0
   32.8729  -21.5016   24.7664 O   0  0  0  0  0  0  0  0  0  0  0  0
   34.7442  -21.1961   23.6017 O   0  0  0  0  0  0  0  0  0  0  0  0
   27.3618  -23.3779   25.1094 C   0  0  0  0  0  0  0  0  0  0  0  0
   26.5685  -23.4083   24.0755 N   0  0  0  0  0  0  0  0  0  0  0  0
   25.2899  -23.6636   24.2075 C   0  0  0  0  0  0  0  0  0  0  0  0
   24.4200  -23.7311   23.0024 C   0  0  0  0  0  0  0  0  0  0  0  0
   23.6349  -24.8781   22.7866 C   0  0  0  0  0  0  0  0  0  0  0  0
   22.8387  -25.0298   21.6820 C   0  0  0  0  0  0  0  0  0  0  0  0
   22.7843  -24.0465   20.7368 C   0  0  0  0  0  0  0  0  0  0  0  0
   23.5378  -22.9208   20.9207 C   0  0  0  0  0  0  0  0  0  0  0  0
   24.3549  -22.7711   22.0581 C   0  0  0  0  0  0  0  0  0  0  0  0
   25.3239  -21.3159   22.1765 Cl  0  0  0  0  0  0  0  0  0  0  0  0
   24.8381  -23.8946   25.4704 C   0  0  0  0  0  0  0  0  0  0  0  0
   26.2989  -23.7254   26.3934 S   0  0  0  0  0  0  0  0  0  0  0  0
  1  2  1  0
  2  3  1  0
  3  4  2  0
  4  5  1  0
  5  6  2  0
  6  7  1  0
  7  8  2  0
  8  9  1  0
  9 10  2  0
 10 11  1  0
 11 12  2  0
 11 13  1  0
  2 14  1  0
 14 15  2  0
 15 16  1  0
 16 17  1  0
 17 18  2  0
 18 19  1  0
 19 20  2  0
 20 21  1  0
 21 22  2  0
 22 23  1  0
 16 24  2  0
 24 25  1  0
 10  5  1  0
 25 14  1  0
 22 17  1  0
M  END
$$$$
