
     RDKit          3D

 25 27  0  0  0  0  0  0  0  0999 V2000
   32.4710  -22.6625   25.4316 C   0  0  0  0  0  0  0  0  0  0  0  0
   31.6156  -22.0751   24.4388 N   0  0  0  0  0  0  0  0  0  0  0  0
   32.1300  -21.1958   23.5112 N   0  0  0  0  0  0  0  0  0  0  0  0
   32.4725  -21.5427   22.2943 C   0  0  0  0  0  0  0  0  0  0  0  0
   32.9434  -20.5513   21.3446 C   0  0  0  0  0  0  0  0  0  0  0  0
   32.3099  -19.2927   21.3115 C   0  0  0  0  0  0  0  0  0  0  0  0
   32.7084  -18.3183   20.4400 C   0  0  0  0  0  0  0  0  0  0  0  0
   33.7546  -18.5355   19.5545 C   0  0  0  0  0  0  0  0  0  0  0  0
   34.3496  -19.7619   19.6080 C   0  0  0  0  0  0  0  0  0  0  0  0
   33.9663  -20.7901   20.4921 C   0  0  0  0  0  0  0  0  0  0  0  0
   34.6775  -22.0392   20.4465 C   0  0  0  0  0  0  0  0  0  0  0  0
   34.4154  -22.8988   21.3582 O   0  0  0  0  0  0  0  0  0  0  0  0
   35.6145  -22.4382   19.5412 O   0  0  0  0  0  0  0  0  0  0  0  0
   30.2100  -22.4347   24.4443 C   0  0  0  0  0  0  0  0  0  0  0  0
   29.3069  -22.1906   23.5367 N   0  0  0  0  0  0  0  0  0  0  0  0
   28.0661  -22.5838   23.6898 C   0  0  0  0  0  0  0  0  0  0  0  0
   27.0693  -22.3246   22.6161 C   0  0  0  0  0  0  0  0  0  0  0  0
   27.4710  -21.6314   21.4600 C   0  0  0  0  0  0  0  0  0  0  0  0
   26.6028  -21.3223   20.4463 C   0  0  0  0  0  0  0  0  0  0  0  0
   25.2906  -21.6883   20.5331 C   0  0  0  0  0  0  0  0  0  0  0  0
   24.8724  -22.3627   21.6463 C   0  0  0  0  0  0  0  0  0  0  0  0
   25.7698  -22.6768   22.6854 C   0  0  0  0  0  0  0  0  0  0  0  0
   25.1264  -23.4957   24.0946 Cl  0  0  0  0  0  0  0  0  0  0  0  0
   27.7732  -23.2562   24.8363 C   0  0  0  0  0  0  0  0  0  0  0  0
   29.3190  -23.2760   25.6266 S   0  0  0  0  0  0  0  0  0  0  0  0
  1  2  1  0
  2  3  1  0
  3  4  2  0
  4  5  1  0
  5  6  2  0
  6  7  1  0
  7  8  2  0
  8  9  1  0
  9 10  2  0
 10 11  1  0
 11 12  2  0
 11 13  1  0
  2 14  1  0
 14 15  2  0
 15 16  1  0
 16 17  1  0
 17 18  2  0
 18 19  1  0
 19 20  2  0
 20 21  1  0
 21 22  2  0
 22 23  1  0
 16 24  2  0
 24 25  1  0
 10  5  1  0
 25 14  1  0
 22 17  1  0
M  END
$$$$
