
     RDKit          3D

 25 27  0  0  0  0  0  0  0  0999 V2000
   30.1796  -22.6563   26.0134 C   0  0  0  0  0  0  0  0  0  0  0  0
   29.3250  -22.8092   24.8696 N   0  0  0  0  0  0  0  0  0  0  0  0
   29.8398  -22.6903   23.5971 N   0  0  0  0  0  0  0  0  0  0  0  0
   30.9871  -22.1157   23.3289 C   0  0  0  0  0  0  0  0  0  0  0  0
   31.4257  -21.9381   21.9570 C   0  0  0  0  0  0  0  0  0  0  0  0
   30.4668  -22.0095   20.9263 C   0  0  0  0  0  0  0  0  0  0  0  0
   30.8182  -21.8500   19.6152 C   0  0  0  0  0  0  0  0  0  0  0  0
   32.1363  -21.6113   19.2524 C   0  0  0  0  0  0  0  0  0  0  0  0
   33.0430  -21.5472   20.2695 C   0  0  0  0  0  0  0  0  0  0  0  0
   32.7181  -21.7065   21.6314 C   0  0  0  0  0  0  0  0  0  0  0  0
   33.7712  -21.6158   22.6065 C   0  0  0  0  0  0  0  0  0  0  0  0
   33.4296  -21.5861   23.8400 O   0  0  0  0  0  0  0  0  0  0  0  0
   35.1146  -21.5558   22.3870 O   0  0  0  0  0  0  0  0  0  0  0  0
   27.9197  -23.0907   25.0955 C   0  0  0  0  0  0  0  0  0  0  0  0
   26.9583  -23.1741   24.2193 N   0  0  0  0  0  0  0  0  0  0  0  0
   25.7273  -23.4370   24.5843 C   0  0  0  0  0  0  0  0  0  0  0  0
   24.6611  -23.5657   23.5547 C   0  0  0  0  0  0  0  0  0  0  0  0
   23.8663  -24.7260   23.5317 C   0  0  0  0  0  0  0  0  0  0  0  0
   22.8913  -24.9337   22.5918 C   0  0  0  0  0  0  0  0  0  0  0  0
   22.6589  -23.9959   21.6275 C   0  0  0  0  0  0  0  0  0  0  0  0
   23.4172  -22.8585   21.6257 C   0  0  0  0  0  0  0  0  0  0  0  0
   24.4186  -22.6513   22.5943 C   0  0  0  0  0  0  0  0  0  0  0  0
   25.3730  -21.1865   22.4754 Cl  0  0  0  0  0  0  0  0  0  0  0  0
   25.5081  -23.6182   25.9153 C   0  0  0  0  0  0  0  0  0  0  0  0
   27.1047  -23.3937   26.5595 S   0  0  0  0  0  0  0  0  0  0  0  0
  1  2  1  0
  2  3  1  0
  3  4  2  0
  4  5  1  0
  5  6  2  0
  6  7  1  0
  7  8  2  0
  8  9  1  0
  9 10  2  0
 10 11  1  0
 11 12  2  0
 11 13  1  0
  2 14  1  0
 14 15  2  0
 15 16  1  0
 16 17  1  0
 17 18  2  0
 18 19  1  0
 19 20  2  0
 20 21  1  0
 21 22  2  0
 22 23  1  0
 16 24  2  0
 24 25  1  0
 10  5  1  0
 25 14  1  0
 22 17  1  0
M  END
$$$$
