
     RDKit          3D

 25 27  0  0  0  0  0  0  0  0999 V2000
   28.7674  -23.5215   25.5319 C   0  0  0  0  0  0  0  0  0  0  0  0
   29.0403  -22.5937   24.4704 N   0  0  0  0  0  0  0  0  0  0  0  0
   30.2805  -22.0027   24.3662 N   0  0  0  0  0  0  0  0  0  0  0  0
   31.1210  -22.2462   23.3901 C   0  0  0  0  0  0  0  0  0  0  0  0
   32.4061  -21.5743   23.3320 C   0  0  0  0  0  0  0  0  0  0  0  0
   32.6490  -20.5029   24.2151 C   0  0  0  0  0  0  0  0  0  0  0  0
   33.8393  -19.8314   24.2085 C   0  0  0  0  0  0  0  0  0  0  0  0
   34.8535  -20.1828   23.3288 C   0  0  0  0  0  0  0  0  0  0  0  0
   34.5916  -21.2227   22.4858 C   0  0  0  0  0  0  0  0  0  0  0  0
   33.3777  -21.9379   22.4638 C   0  0  0  0  0  0  0  0  0  0  0  0
   33.2296  -23.0159   21.5233 C   0  0  0  0  0  0  0  0  0  0  0  0
   32.1738  -23.7343   21.6137 O   0  0  0  0  0  0  0  0  0  0  0  0
   34.0831  -23.3822   20.5264 O   0  0  0  0  0  0  0  0  0  0  0  0
   27.9806  -22.3042   23.5226 C   0  0  0  0  0  0  0  0  0  0  0  0
   26.8489  -22.9290   23.3555 N   0  0  0  0  0  0  0  0  0  0  0  0
   25.9873  -22.5429   22.4466 C   0  0  0  0  0  0  0  0  0  0  0  0
   24.6872  -23.2530   22.3096 C   0  0  0  0  0  0  0  0  0  0  0  0
   23.9149  -23.0527   21.1511 C   0  0  0  0  0  0  0  0  0  0  0  0
   22.6910  -23.6411   20.9696 C   0  0  0  0  0  0  0  0  0  0  0  0
   22.1747  -24.4588   21.9331 C   0  0  0  0  0  0  0  0  0  0  0  0
   22.9038  -24.6707   23.0699 C   0  0  0  0  0  0  0  0  0  0  0  0
   24.1611  -24.0623   23.2508 C   0  0  0  0  0  0  0  0  0  0  0  0
   24.9939  -24.3529   24.7649 Cl  0  0  0  0  0  0  0  0  0  0  0  0
   26.3332  -21.4632   21.6936 C   0  0  0  0  0  0  0  0  0  0  0  0
   27.8926  -21.0730   22.3497 S   0  0  0  0  0  0  0  0  0  0  0  0
  1  2  1  0
  2  3  1  0
  3  4  2  0
  4  5  1  0
  5  6  2  0
  6  7  1  0
  7  8  2  0
  8  9  1  0
  9 10  2  0
 10 11  1  0
 11 12  2  0
 11 13  1  0
  2 14  1  0
 14 15  2  0
 15 16  1  0
 16 17  1  0
 17 18  2  0
 18 19  1  0
 19 20  2  0
 20 21  1  0
 21 22  2  0
 22 23  1  0
 16 24  2  0
 24 25  1  0
 10  5  1  0
 25 14  1  0
 22 17  1  0
M  END
$$$$
