
     RDKit          3D

 25 27  0  0  0  0  0  0  0  0999 V2000
   28.7882  -23.7019   25.2270 C   0  0  0  0  0  0  0  0  0  0  0  0
   28.7901  -23.0795   23.9329 N   0  0  0  0  0  0  0  0  0  0  0  0
   29.9793  -22.8349   23.2815 N   0  0  0  0  0  0  0  0  0  0  0  0
   31.0045  -22.2399   23.8414 C   0  0  0  0  0  0  0  0  0  0  0  0
   32.1953  -21.9316   23.0712 C   0  0  0  0  0  0  0  0  0  0  0  0
   32.2518  -22.3375   21.7226 C   0  0  0  0  0  0  0  0  0  0  0  0
   33.3456  -22.0759   20.9461 C   0  0  0  0  0  0  0  0  0  0  0  0
   34.4424  -21.3989   21.4608 C   0  0  0  0  0  0  0  0  0  0  0  0
   34.3609  -21.0179   22.7680 C   0  0  0  0  0  0  0  0  0  0  0  0
   33.2508  -21.2699   23.5987 C   0  0  0  0  0  0  0  0  0  0  0  0
   33.2922  -20.8136   24.9619 C   0  0  0  0  0  0  0  0  0  0  0  0
   32.3227  -21.1539   25.7256 O   0  0  0  0  0  0  0  0  0  0  0  0
   34.2477  -20.0499   25.5620 O   0  0  0  0  0  0  0  0  0  0  0  0
   27.5143  -22.7227   23.3411 C   0  0  0  0  0  0  0  0  0  0  0  0
   26.4023  -23.4027   23.3401 N   0  0  0  0  0  0  0  0  0  0  0  0
   25.3241  -22.9411   22.7552 C   0  0  0  0  0  0  0  0  0  0  0  0
   24.0601  -23.7240   22.8079 C   0  0  0  0  0  0  0  0  0  0  0  0
   23.9603  -24.8063   23.7007 C   0  0  0  0  0  0  0  0  0  0  0  0
   22.8442  -25.5969   23.7797 C   0  0  0  0  0  0  0  0  0  0  0  0
   21.7711  -25.3491   22.9732 C   0  0  0  0  0  0  0  0  0  0  0  0
   21.8410  -24.3037   22.0952 C   0  0  0  0  0  0  0  0  0  0  0  0
   22.9917  -23.4950   22.0183 C   0  0  0  0  0  0  0  0  0  0  0  0
   23.0054  -22.2132   20.8237 Cl  0  0  0  0  0  0  0  0  0  0  0  0
   25.4258  -21.7237   22.1551 C   0  0  0  0  0  0  0  0  0  0  0  0
   27.0844  -21.3215   22.4744 S   0  0  0  0  0  0  0  0  0  0  0  0
  1  2  1  0
  2  3  1  0
  3  4  2  0
  4  5  1  0
  5  6  2  0
  6  7  1  0
  7  8  2  0
  8  9  1  0
  9 10  2  0
 10 11  1  0
 11 12  2  0
 11 13  1  0
  2 14  1  0
 14 15  2  0
 15 16  1  0
 16 17  1  0
 17 18  2  0
 18 19  1  0
 19 20  2  0
 20 21  1  0
 21 22  2  0
 22 23  1  0
 16 24  2  0
 24 25  1  0
 10  5  1  0
 25 14  1  0
 22 17  1  0
M  END
$$$$
