
     RDKit          3D

 25 27  0  0  0  0  0  0  0  0999 V2000
   31.8056  -22.6633   25.0956 C   0  0  0  0  0  0  0  0  0  0  0  0
   30.8031  -22.1310   24.2159 N   0  0  0  0  0  0  0  0  0  0  0  0
   31.1662  -21.3462   23.1432 N   0  0  0  0  0  0  0  0  0  0  0  0
   32.3139  -21.4558   22.5192 C   0  0  0  0  0  0  0  0  0  0  0  0
   32.6262  -20.6059   21.3850 C   0  0  0  0  0  0  0  0  0  0  0  0
   31.6743  -19.6515   20.9732 C   0  0  0  0  0  0  0  0  0  0  0  0
   31.9107  -18.8224   19.9127 C   0  0  0  0  0  0  0  0  0  0  0  0
   33.1008  -18.8921   19.2023 C   0  0  0  0  0  0  0  0  0  0  0  0
   34.0039  -19.8243   19.6221 C   0  0  0  0  0  0  0  0  0  0  0  0
   33.7952  -20.6954   20.7100 C   0  0  0  0  0  0  0  0  0  0  0  0
   34.8303  -21.6342   21.0498 C   0  0  0  0  0  0  0  0  0  0  0  0
   34.6709  -22.3250   22.1158 O   0  0  0  0  0  0  0  0  0  0  0  0
   35.9841  -21.8919   20.3725 O   0  0  0  0  0  0  0  0  0  0  0  0
   29.4131  -22.4441   24.4899 C   0  0  0  0  0  0  0  0  0  0  0  0
   28.3762  -22.2737   23.7187 N   0  0  0  0  0  0  0  0  0  0  0  0
   27.1727  -22.6089   24.1145 C   0  0  0  0  0  0  0  0  0  0  0  0
   26.0163  -22.4391   23.1940 C   0  0  0  0  0  0  0  0  0  0  0  0
   26.0224  -21.3752   22.2739 C   0  0  0  0  0  0  0  0  0  0  0  0
   24.9783  -21.1315   21.4210 C   0  0  0  0  0  0  0  0  0  0  0  0
   23.8753  -21.9356   21.4416 C   0  0  0  0  0  0  0  0  0  0  0  0
   23.8422  -22.9769   22.3266 C   0  0  0  0  0  0  0  0  0  0  0  0
   24.9185  -23.2217   23.2014 C   0  0  0  0  0  0  0  0  0  0  0  0
   24.7583  -24.5478   24.3355 Cl  0  0  0  0  0  0  0  0  0  0  0  0
   27.0639  -23.1414   25.3623 C   0  0  0  0  0  0  0  0  0  0  0  0
   28.7183  -23.1218   25.8889 S   0  0  0  0  0  0  0  0  0  0  0  0
  1  2  1  0
  2  3  1  0
  3  4  2  0
  4  5  1  0
  5  6  2  0
  6  7  1  0
  7  8  2  0
  8  9  1  0
  9 10  2  0
 10 11  1  0
 11 12  2  0
 11 13  1  0
  2 14  1  0
 14 15  2  0
 15 16  1  0
 16 17  1  0
 17 18  2  0
 18 19  1  0
 19 20  2  0
 20 21  1  0
 21 22  2  0
 22 23  1  0
 16 24  2  0
 24 25  1  0
 10  5  1  0
 25 14  1  0
 22 17  1  0
M  END
$$$$
