
     RDKit          3D

 25 27  0  0  0  0  0  0  0  0999 V2000
   34.1447  -22.2169   24.4727 C   0  0  0  0  0  0  0  0  0  0  0  0
   33.0763  -21.6190   23.7222 N   0  0  0  0  0  0  0  0  0  0  0  0
   33.3542  -20.7453   22.6937 N   0  0  0  0  0  0  0  0  0  0  0  0
   33.7859  -21.1247   21.5155 C   0  0  0  0  0  0  0  0  0  0  0  0
   33.9348  -20.1667   20.4356 C   0  0  0  0  0  0  0  0  0  0  0  0
   33.1900  -18.9711   20.4853 C   0  0  0  0  0  0  0  0  0  0  0  0
   33.2878  -18.0304   19.4987 C   0  0  0  0  0  0  0  0  0  0  0  0
   34.1271  -18.2209   18.4100 C   0  0  0  0  0  0  0  0  0  0  0  0
   34.8358  -19.3862   18.3874 C   0  0  0  0  0  0  0  0  0  0  0  0
   34.7609  -20.3782   19.3854 C   0  0  0  0  0  0  0  0  0  0  0  0
   35.5627  -21.5634   19.2410 C   0  0  0  0  0  0  0  0  0  0  0  0
   35.5827  -22.3832   20.2240 O   0  0  0  0  0  0  0  0  0  0  0  0
   36.3209  -21.9379   18.1726 O   0  0  0  0  0  0  0  0  0  0  0  0
   31.7121  -21.9621   24.0776 C   0  0  0  0  0  0  0  0  0  0  0  0
   30.6294  -21.8249   23.3648 N   0  0  0  0  0  0  0  0  0  0  0  0
   29.4587  -22.1844   23.8314 C   0  0  0  0  0  0  0  0  0  0  0  0
   28.2483  -22.0522   22.9764 C   0  0  0  0  0  0  0  0  0  0  0  0
   28.3454  -21.3683   21.7511 C   0  0  0  0  0  0  0  0  0  0  0  0
   27.2678  -21.1730   20.9280 C   0  0  0  0  0  0  0  0  0  0  0  0
   26.0390  -21.6491   21.2841 C   0  0  0  0  0  0  0  0  0  0  0  0
   25.9155  -22.3172   22.4703 C   0  0  0  0  0  0  0  0  0  0  0  0
   27.0272  -22.5141   23.3125 C   0  0  0  0  0  0  0  0  0  0  0  0
   26.7563  -23.3352   24.8366 Cl  0  0  0  0  0  0  0  0  0  0  0  0
   29.4336  -22.7056   25.0885 C   0  0  0  0  0  0  0  0  0  0  0  0
   31.1141  -22.6408   25.5201 S   0  0  0  0  0  0  0  0  0  0  0  0
  1  2  1  0
  2  3  1  0
  3  4  2  0
  4  5  1  0
  5  6  2  0
  6  7  1  0
  7  8  2  0
  8  9  1  0
  9 10  2  0
 10 11  1  0
 11 12  2  0
 11 13  1  0
  2 14  1  0
 14 15  2  0
 15 16  1  0
 16 17  1  0
 17 18  2  0
 18 19  1  0
 19 20  2  0
 20 21  1  0
 21 22  2  0
 22 23  1  0
 16 24  2  0
 24 25  1  0
 10  5  1  0
 25 14  1  0
 22 17  1  0
M  END
$$$$
