
     RDKit          3D

 25 27  0  0  0  0  0  0  0  0999 V2000
   30.0999  -22.5995   26.0508 C   0  0  0  0  0  0  0  0  0  0  0  0
   29.2248  -22.6645   24.9141 N   0  0  0  0  0  0  0  0  0  0  0  0
   29.7264  -22.5021   23.6412 N   0  0  0  0  0  0  0  0  0  0  0  0
   30.9710  -22.1781   23.3873 C   0  0  0  0  0  0  0  0  0  0  0  0
   31.3856  -21.8204   22.0432 C   0  0  0  0  0  0  0  0  0  0  0  0
   30.3933  -21.5629   21.0759 C   0  0  0  0  0  0  0  0  0  0  0  0
   30.7211  -21.2213   19.7939 C   0  0  0  0  0  0  0  0  0  0  0  0
   32.0473  -21.1156   19.3990 C   0  0  0  0  0  0  0  0  0  0  0  0
   32.9866  -21.3700   20.3550 C   0  0  0  0  0  0  0  0  0  0  0  0
   32.6867  -21.7246   21.6854 C   0  0  0  0  0  0  0  0  0  0  0  0
   33.7732  -21.9669   22.5959 C   0  0  0  0  0  0  0  0  0  0  0  0
   33.4739  -22.2194   23.8147 O   0  0  0  0  0  0  0  0  0  0  0  0
   35.1090  -21.9634   22.3274 O   0  0  0  0  0  0  0  0  0  0  0  0
   27.8131  -22.9051   25.1475 C   0  0  0  0  0  0  0  0  0  0  0  0
   26.8655  -23.0859   24.2710 N   0  0  0  0  0  0  0  0  0  0  0  0
   25.6260  -23.2927   24.6433 C   0  0  0  0  0  0  0  0  0  0  0  0
   24.5757  -23.5362   23.6182 C   0  0  0  0  0  0  0  0  0  0  0  0
   23.7627  -24.6789   23.7271 C   0  0  0  0  0  0  0  0  0  0  0  0
   22.8008  -24.9905   22.8026 C   0  0  0  0  0  0  0  0  0  0  0  0
   22.6001  -24.1795   21.7231 C   0  0  0  0  0  0  0  0  0  0  0  0
   23.3768  -23.0622   21.5918 C   0  0  0  0  0  0  0  0  0  0  0  0
   24.3646  -22.7477   22.5452 C   0  0  0  0  0  0  0  0  0  0  0  0
   25.3446  -21.3233   22.2601 Cl  0  0  0  0  0  0  0  0  0  0  0  0
   25.3830  -23.3099   25.9824 C   0  0  0  0  0  0  0  0  0  0  0  0
   26.9710  -23.0223   26.6228 S   0  0  0  0  0  0  0  0  0  0  0  0
  1  2  1  0
  2  3  1  0
  3  4  2  0
  4  5  1  0
  5  6  2  0
  6  7  1  0
  7  8  2  0
  8  9  1  0
  9 10  2  0
 10 11  1  0
 11 12  2  0
 11 13  1  0
  2 14  1  0
 14 15  2  0
 15 16  1  0
 16 17  1  0
 17 18  2  0
 18 19  1  0
 19 20  2  0
 20 21  1  0
 21 22  2  0
 22 23  1  0
 16 24  2  0
 24 25  1  0
 10  5  1  0
 25 14  1  0
 22 17  1  0
M  END
$$$$
