
     RDKit          3D

 25 27  0  0  0  0  0  0  0  0999 V2000
   27.3242  -21.1887   20.9656 C   0  0  0  0  0  0  0  0  0  0  0  0
   26.6804  -21.8558   22.0622 N   0  0  0  0  0  0  0  0  0  0  0  0
   27.3682  -22.0906   23.2327 N   0  0  0  0  0  0  0  0  0  0  0  0
   28.6758  -22.0672   23.3235 C   0  0  0  0  0  0  0  0  0  0  0  0
   29.3359  -22.2990   24.5950 C   0  0  0  0  0  0  0  0  0  0  0  0
   28.5494  -22.6503   25.7107 C   0  0  0  0  0  0  0  0  0  0  0  0
   29.1130  -22.8815   26.9341 C   0  0  0  0  0  0  0  0  0  0  0  0
   30.4843  -22.7781   27.1205 C   0  0  0  0  0  0  0  0  0  0  0  0
   31.2211  -22.4369   26.0244 C   0  0  0  0  0  0  0  0  0  0  0  0
   30.6756  -22.1911   24.7486 C   0  0  0  0  0  0  0  0  0  0  0  0
   31.5650  -21.8386   23.6748 C   0  0  0  0  0  0  0  0  0  0  0  0
   31.0381  -21.5649   22.5406 O   0  0  0  0  0  0  0  0  0  0  0  0
   32.9246  -21.7555   23.7050 O   0  0  0  0  0  0  0  0  0  0  0  0
   25.2988  -22.2679   21.8992 C   0  0  0  0  0  0  0  0  0  0  0  0
   24.6629  -23.2311   22.5050 N   0  0  0  0  0  0  0  0  0  0  0  0
   23.4032  -23.4824   22.2451 C   0  0  0  0  0  0  0  0  0  0  0  0
   22.6958  -24.5627   22.9840 C   0  0  0  0  0  0  0  0  0  0  0  0
   22.8962  -24.6903   24.3704 C   0  0  0  0  0  0  0  0  0  0  0  0
   22.3104  -25.6820   25.1122 C   0  0  0  0  0  0  0  0  0  0  0  0
   21.4952  -26.5966   24.5103 C   0  0  0  0  0  0  0  0  0  0  0  0
   21.2832  -26.4968   23.1635 C   0  0  0  0  0  0  0  0  0  0  0  0
   21.8891  -25.4753   22.4063 C   0  0  0  0  0  0  0  0  0  0  0  0
   21.5988  -25.4640   20.6783 Cl  0  0  0  0  0  0  0  0  0  0  0  0
   22.7988  -22.6902   21.3180 C   0  0  0  0  0  0  0  0  0  0  0  0
   24.0981  -21.6267   20.8763 S   0  0  0  0  0  0  0  0  0  0  0  0
  1  2  1  0
  2  3  1  0
  3  4  2  0
  4  5  1  0
  5  6  2  0
  6  7  1  0
  7  8  2  0
  8  9  1  0
  9 10  2  0
 10 11  1  0
 11 12  2  0
 11 13  1  0
  2 14  1  0
 14 15  2  0
 15 16  1  0
 16 17  1  0
 17 18  2  0
 18 19  1  0
 19 20  2  0
 20 21  1  0
 21 22  2  0
 22 23  1  0
 16 24  2  0
 24 25  1  0
 10  5  1  0
 25 14  1  0
 22 17  1  0
M  END
$$$$
