
     RDKit          3D

 25 27  0  0  0  0  0  0  0  0999 V2000
   29.1872  -23.1602   27.1530 C   0  0  0  0  0  0  0  0  0  0  0  0
   28.7841  -23.2362   25.7768 N   0  0  0  0  0  0  0  0  0  0  0  0
   29.7272  -23.1928   24.7734 N   0  0  0  0  0  0  0  0  0  0  0  0
   30.2905  -22.0858   24.3540 C   0  0  0  0  0  0  0  0  0  0  0  0
   30.6435  -21.9157   22.9566 C   0  0  0  0  0  0  0  0  0  0  0  0
   29.6280  -22.0231   21.9851 C   0  0  0  0  0  0  0  0  0  0  0  0
   29.8981  -21.8725   20.6539 C   0  0  0  0  0  0  0  0  0  0  0  0
   31.1865  -21.6076   20.2113 C   0  0  0  0  0  0  0  0  0  0  0  0
   32.1494  -21.5088   21.1725 C   0  0  0  0  0  0  0  0  0  0  0  0
   31.9087  -21.6580   22.5529 C   0  0  0  0  0  0  0  0  0  0  0  0
   33.0146  -21.5298   23.4633 C   0  0  0  0  0  0  0  0  0  0  0  0
   32.7725  -21.6946   24.7096 O   0  0  0  0  0  0  0  0  0  0  0  0
   34.3151  -21.2497   23.1689 O   0  0  0  0  0  0  0  0  0  0  0  0
   27.3688  -23.3600   25.4821 C   0  0  0  0  0  0  0  0  0  0  0  0
   26.7518  -23.1310   24.3570 N   0  0  0  0  0  0  0  0  0  0  0  0
   25.4553  -23.2890   24.2488 C   0  0  0  0  0  0  0  0  0  0  0  0
   24.7879  -23.0585   22.9392 C   0  0  0  0  0  0  0  0  0  0  0  0
   25.0378  -21.8621   22.2431 C   0  0  0  0  0  0  0  0  0  0  0  0
   24.4321  -21.5616   21.0515 C   0  0  0  0  0  0  0  0  0  0  0  0
   23.5469  -22.4380   20.4933 C   0  0  0  0  0  0  0  0  0  0  0  0
   23.2846  -23.6086   21.1488 C   0  0  0  0  0  0  0  0  0  0  0  0
   23.9100  -23.9113   22.3739 C   0  0  0  0  0  0  0  0  0  0  0  0
   23.4674  -25.4119   23.1630 Cl  0  0  0  0  0  0  0  0  0  0  0  0
   24.7930  -23.7026   25.3636 C   0  0  0  0  0  0  0  0  0  0  0  0
   26.0941  -23.8360   26.5056 S   0  0  0  0  0  0  0  0  0  0  0  0
  1  2  1  0
  2  3  1  0
  3  4  2  0
  4  5  1  0
  5  6  2  0
  6  7  1  0
  7  8  2  0
  8  9  1  0
  9 10  2  0
 10 11  1  0
 11 12  2  0
 11 13  1  0
  2 14  1  0
 14 15  2  0
 15 16  1  0
 16 17  1  0
 17 18  2  0
 18 19  1  0
 19 20  2  0
 20 21  1  0
 21 22  2  0
 22 23  1  0
 16 24  2  0
 24 25  1  0
 10  5  1  0
 25 14  1  0
 22 17  1  0
M  END
$$$$
