
     RDKit          3D

 25 27  0  0  0  0  0  0  0  0999 V2000
   28.7304  -23.1262   26.6747 C   0  0  0  0  0  0  0  0  0  0  0  0
   28.2393  -23.3108   25.3379 N   0  0  0  0  0  0  0  0  0  0  0  0
   29.1016  -23.2419   24.2655 N   0  0  0  0  0  0  0  0  0  0  0  0
   30.0985  -22.3940   24.1890 C   0  0  0  0  0  0  0  0  0  0  0  0
   30.7941  -22.1773   22.9338 C   0  0  0  0  0  0  0  0  0  0  0  0
   30.1348  -22.5019   21.7310 C   0  0  0  0  0  0  0  0  0  0  0  0
   30.7373  -22.3200   20.5179 C   0  0  0  0  0  0  0  0  0  0  0  0
   32.0238  -21.8074   20.4284 C   0  0  0  0  0  0  0  0  0  0  0  0
   32.6382  -21.5020   21.6074 C   0  0  0  0  0  0  0  0  0  0  0  0
   32.0491  -21.6758   22.8757 C   0  0  0  0  0  0  0  0  0  0  0  0
   32.8068  -21.3135   24.0432 C   0  0  0  0  0  0  0  0  0  0  0  0
   32.2582  -21.5070   25.1836 O   0  0  0  0  0  0  0  0  0  0  0  0
   34.0591  -20.7796   24.0978 O   0  0  0  0  0  0  0  0  0  0  0  0
   26.8234  -23.5704   25.1565 C   0  0  0  0  0  0  0  0  0  0  0  0
   26.1195  -23.4987   24.0619 N   0  0  0  0  0  0  0  0  0  0  0  0
   24.8363  -23.7651   24.0605 C   0  0  0  0  0  0  0  0  0  0  0  0
   24.0706  -23.7135   22.7860 C   0  0  0  0  0  0  0  0  0  0  0  0
   23.2826  -24.8177   22.4140 C   0  0  0  0  0  0  0  0  0  0  0  0
   22.5800  -24.8599   21.2386 C   0  0  0  0  0  0  0  0  0  0  0  0
   22.6267  -23.8041   20.3745 C   0  0  0  0  0  0  0  0  0  0  0  0
   23.3854  -22.7177   20.7106 C   0  0  0  0  0  0  0  0  0  0  0  0
   24.1061  -22.6808   21.9201 C   0  0  0  0  0  0  0  0  0  0  0  0
   25.0919  -21.2669   22.2355 Cl  0  0  0  0  0  0  0  0  0  0  0  0
   24.2825  -24.1190   25.2524 C   0  0  0  0  0  0  0  0  0  0  0  0
   25.6598  -24.0419   26.3067 S   0  0  0  0  0  0  0  0  0  0  0  0
  1  2  1  0
  2  3  1  0
  3  4  2  0
  4  5  1  0
  5  6  2  0
  6  7  1  0
  7  8  2  0
  8  9  1  0
  9 10  2  0
 10 11  1  0
 11 12  2  0
 11 13  1  0
  2 14  1  0
 14 15  2  0
 15 16  1  0
 16 17  1  0
 17 18  2  0
 18 19  1  0
 19 20  2  0
 20 21  1  0
 21 22  2  0
 22 23  1  0
 16 24  2  0
 24 25  1  0
 10  5  1  0
 25 14  1  0
 22 17  1  0
M  END
$$$$
