
     RDKit          3D

 25 27  0  0  0  0  0  0  0  0999 V2000
   30.1848  -22.4019   26.3888 C   0  0  0  0  0  0  0  0  0  0  0  0
   29.2820  -22.3290   25.2745 N   0  0  0  0  0  0  0  0  0  0  0  0
   29.7060  -21.8125   24.0696 N   0  0  0  0  0  0  0  0  0  0  0  0
   30.7794  -22.2253   23.4403 C   0  0  0  0  0  0  0  0  0  0  0  0
   31.0230  -21.8462   22.0608 C   0  0  0  0  0  0  0  0  0  0  0  0
   29.9182  -21.5638   21.2323 C   0  0  0  0  0  0  0  0  0  0  0  0
   30.0835  -21.2012   19.9250 C   0  0  0  0  0  0  0  0  0  0  0  0
   31.3496  -21.0981   19.3663 C   0  0  0  0  0  0  0  0  0  0  0  0
   32.4004  -21.3768   20.1903 C   0  0  0  0  0  0  0  0  0  0  0  0
   32.2688  -21.7535   21.5418 C   0  0  0  0  0  0  0  0  0  0  0  0
   33.4600  -22.0204   22.3021 C   0  0  0  0  0  0  0  0  0  0  0  0
   33.3204  -22.2419   23.5553 O   0  0  0  0  0  0  0  0  0  0  0  0
   34.7464  -22.0698   21.8558 O   0  0  0  0  0  0  0  0  0  0  0  0
   27.9262  -22.8125   25.4569 C   0  0  0  0  0  0  0  0  0  0  0  0
   26.9976  -22.9812   24.5579 N   0  0  0  0  0  0  0  0  0  0  0  0
   25.8099  -23.4296   24.8837 C   0  0  0  0  0  0  0  0  0  0  0  0
   24.7859  -23.6495   23.8271 C   0  0  0  0  0  0  0  0  0  0  0  0
   24.0305  -24.8359   23.8403 C   0  0  0  0  0  0  0  0  0  0  0  0
   23.0970  -25.1268   22.8806 C   0  0  0  0  0  0  0  0  0  0  0  0
   22.8687  -24.2502   21.8594 C   0  0  0  0  0  0  0  0  0  0  0  0
   23.5894  -23.0891   21.8214 C   0  0  0  0  0  0  0  0  0  0  0  0
   24.5483  -22.7963   22.8106 C   0  0  0  0  0  0  0  0  0  0  0  0
   25.4583  -21.3081   22.6447 Cl  0  0  0  0  0  0  0  0  0  0  0  0
   25.5998  -23.7087   26.1991 C   0  0  0  0  0  0  0  0  0  0  0  0
   27.1411  -23.3010   26.8866 S   0  0  0  0  0  0  0  0  0  0  0  0
  1  2  1  0
  2  3  1  0
  3  4  2  0
  4  5  1  0
  5  6  2  0
  6  7  1  0
  7  8  2  0
  8  9  1  0
  9 10  2  0
 10 11  1  0
 11 12  2  0
 11 13  1  0
  2 14  1  0
 14 15  2  0
 15 16  1  0
 16 17  1  0
 17 18  2  0
 18 19  1  0
 19 20  2  0
 20 21  1  0
 21 22  2  0
 22 23  1  0
 16 24  2  0
 24 25  1  0
 10  5  1  0
 25 14  1  0
 22 17  1  0
M  END
$$$$
