
     RDKit          3D

 25 27  0  0  0  0  0  0  0  0999 V2000
   31.2432  -22.7121   26.9892 C   0  0  0  0  0  0  0  0  0  0  0  0
   30.8111  -22.6229   25.6226 N   0  0  0  0  0  0  0  0  0  0  0  0
   31.7321  -22.4480   24.6130 N   0  0  0  0  0  0  0  0  0  0  0  0
   31.8000  -21.3693   23.8711 C   0  0  0  0  0  0  0  0  0  0  0  0
   32.7704  -21.2670   22.7969 C   0  0  0  0  0  0  0  0  0  0  0  0
   33.6833  -22.3241   22.6079 C   0  0  0  0  0  0  0  0  0  0  0  0
   34.6200  -22.2861   21.6134 C   0  0  0  0  0  0  0  0  0  0  0  0
   34.7047  -21.2011   20.7522 C   0  0  0  0  0  0  0  0  0  0  0  0
   33.8094  -20.1926   20.9577 C   0  0  0  0  0  0  0  0  0  0  0  0
   32.8307  -20.1968   21.9715 C   0  0  0  0  0  0  0  0  0  0  0  0
   31.9461  -19.0681   22.0804 C   0  0  0  0  0  0  0  0  0  0  0  0
   31.0550  -19.1059   22.9987 O   0  0  0  0  0  0  0  0  0  0  0  0
   31.9302  -17.9385   21.3187 O   0  0  0  0  0  0  0  0  0  0  0  0
   29.3907  -22.7230   25.3439 C   0  0  0  0  0  0  0  0  0  0  0  0
   28.7616  -22.4589   24.2333 N   0  0  0  0  0  0  0  0  0  0  0  0
   27.4620  -22.5993   24.1387 C   0  0  0  0  0  0  0  0  0  0  0  0
   26.7802  -22.3285   22.8444 C   0  0  0  0  0  0  0  0  0  0  0  0
   27.4552  -21.5916   21.8545 C   0  0  0  0  0  0  0  0  0  0  0  0
   26.8799  -21.2699   20.6535 C   0  0  0  0  0  0  0  0  0  0  0  0
   25.6030  -21.6662   20.3779 C   0  0  0  0  0  0  0  0  0  0  0  0
   24.9230  -22.3833   21.3225 C   0  0  0  0  0  0  0  0  0  0  0  0
   25.5199  -22.7101   22.5557 C   0  0  0  0  0  0  0  0  0  0  0  0
   24.5481  -23.5855   23.7218 Cl  0  0  0  0  0  0  0  0  0  0  0  0
   26.8097  -23.0332   25.2517 C   0  0  0  0  0  0  0  0  0  0  0  0
   28.1240  -23.2100   26.3723 S   0  0  0  0  0  0  0  0  0  0  0  0
  1  2  1  0
  2  3  1  0
  3  4  2  0
  4  5  1  0
  5  6  2  0
  6  7  1  0
  7  8  2  0
  8  9  1  0
  9 10  2  0
 10 11  1  0
 11 12  2  0
 11 13  1  0
  2 14  1  0
 14 15  2  0
 15 16  1  0
 16 17  1  0
 17 18  2  0
 18 19  1  0
 19 20  2  0
 20 21  1  0
 21 22  2  0
 22 23  1  0
 16 24  2  0
 24 25  1  0
 10  5  1  0
 25 14  1  0
 22 17  1  0
M  END
$$$$
