
     RDKit          3D

 25 27  0  0  0  0  0  0  0  0999 V2000
   30.3704  -23.6823   27.9071 C   0  0  0  0  0  0  0  0  0  0  0  0
   30.0109  -23.1601   26.6186 N   0  0  0  0  0  0  0  0  0  0  0  0
   30.9333  -22.4619   25.8702 N   0  0  0  0  0  0  0  0  0  0  0  0
   30.8416  -22.2991   24.5727 C   0  0  0  0  0  0  0  0  0  0  0  0
   31.8819  -21.6051   23.8362 C   0  0  0  0  0  0  0  0  0  0  0  0
   32.9974  -21.1132   24.5437 C   0  0  0  0  0  0  0  0  0  0  0  0
   34.0093  -20.4520   23.9060 C   0  0  0  0  0  0  0  0  0  0  0  0
   33.9731  -20.2414   22.5347 C   0  0  0  0  0  0  0  0  0  0  0  0
   32.8825  -20.7277   21.8753 C   0  0  0  0  0  0  0  0  0  0  0  0
   31.8209  -21.4137   22.4984 C   0  0  0  0  0  0  0  0  0  0  0  0
   30.7276  -21.8757   21.6863 C   0  0  0  0  0  0  0  0  0  0  0  0
   29.8382  -22.6001   22.2545 O   0  0  0  0  0  0  0  0  0  0  0  0
   30.5079  -21.6394   20.3625 O   0  0  0  0  0  0  0  0  0  0  0  0
   28.6619  -23.3903   26.1367 C   0  0  0  0  0  0  0  0  0  0  0  0
   28.1058  -22.9517   25.0425 N   0  0  0  0  0  0  0  0  0  0  0  0
   26.8645  -23.2487   24.7449 C   0  0  0  0  0  0  0  0  0  0  0  0
   26.2730  -22.7657   23.4681 C   0  0  0  0  0  0  0  0  0  0  0  0
   26.7988  -21.6102   22.8625 C   0  0  0  0  0  0  0  0  0  0  0  0
   26.2835  -21.0830   21.7076 C   0  0  0  0  0  0  0  0  0  0  0  0
   25.2184  -21.6805   21.0978 C   0  0  0  0  0  0  0  0  0  0  0  0
   24.6867  -22.8049   21.6652 C   0  0  0  0  0  0  0  0  0  0  0  0
   25.2206  -23.3415   22.8530 C   0  0  0  0  0  0  0  0  0  0  0  0
   24.4358  -24.7538   23.5310 Cl  0  0  0  0  0  0  0  0  0  0  0  0
   26.1929  -24.0340   25.6308 C   0  0  0  0  0  0  0  0  0  0  0  0
   27.4051  -24.2934   26.8465 S   0  0  0  0  0  0  0  0  0  0  0  0
  1  2  1  0
  2  3  1  0
  3  4  2  0
  4  5  1  0
  5  6  2  0
  6  7  1  0
  7  8  2  0
  8  9  1  0
  9 10  2  0
 10 11  1  0
 11 12  2  0
 11 13  1  0
  2 14  1  0
 14 15  2  0
 15 16  1  0
 16 17  1  0
 17 18  2  0
 18 19  1  0
 19 20  2  0
 20 21  1  0
 21 22  2  0
 22 23  1  0
 16 24  2  0
 24 25  1  0
 10  5  1  0
 25 14  1  0
 22 17  1  0
M  END
$$$$
