
     RDKit          3D

 25 27  0  0  0  0  0  0  0  0999 V2000
   31.7980  -22.8167   26.2952 C   0  0  0  0  0  0  0  0  0  0  0  0
   31.0523  -22.2414   25.2112 N   0  0  0  0  0  0  0  0  0  0  0  0
   31.6630  -21.3756   24.3304 N   0  0  0  0  0  0  0  0  0  0  0  0
   32.3135  -21.7667   23.2615 C   0  0  0  0  0  0  0  0  0  0  0  0
   32.8955  -20.7980   22.3509 C   0  0  0  0  0  0  0  0  0  0  0  0
   32.3423  -19.5027   22.2981 C   0  0  0  0  0  0  0  0  0  0  0  0
   32.8469  -18.5471   21.4614 C   0  0  0  0  0  0  0  0  0  0  0  0
   33.9254  -18.8204   20.6319 C   0  0  0  0  0  0  0  0  0  0  0  0
   34.4410  -20.0813   20.7034 C   0  0  0  0  0  0  0  0  0  0  0  0
   33.9477  -21.0916   21.5529 C   0  0  0  0  0  0  0  0  0  0  0  0
   34.5833  -22.3816   21.5315 C   0  0  0  0  0  0  0  0  0  0  0  0
   34.2235  -23.2293   22.4207 O   0  0  0  0  0  0  0  0  0  0  0  0
   35.5392  -22.8312   20.6709 O   0  0  0  0  0  0  0  0  0  0  0  0
   29.6526  -22.5986   25.0752 C   0  0  0  0  0  0  0  0  0  0  0  0
   28.8246  -22.2842   24.1189 N   0  0  0  0  0  0  0  0  0  0  0  0
   27.5775  -22.6865   24.1404 C   0  0  0  0  0  0  0  0  0  0  0  0
   26.6695  -22.3443   23.0126 C   0  0  0  0  0  0  0  0  0  0  0  0
   27.0233  -21.2995   22.1399 C   0  0  0  0  0  0  0  0  0  0  0  0
   26.2216  -20.9014   21.1026 C   0  0  0  0  0  0  0  0  0  0  0  0
   25.0271  -21.5243   20.8823 C   0  0  0  0  0  0  0  0  0  0  0  0
   24.6577  -22.5429   21.7159 C   0  0  0  0  0  0  0  0  0  0  0  0
   25.4860  -22.9469   22.7810 C   0  0  0  0  0  0  0  0  0  0  0  0
   24.8999  -24.2257   23.8259 Cl  0  0  0  0  0  0  0  0  0  0  0  0
   27.1963  -23.4448   25.2044 C   0  0  0  0  0  0  0  0  0  0  0  0
   28.6733  -23.5273   26.1134 S   0  0  0  0  0  0  0  0  0  0  0  0
  1  2  1  0
  2  3  1  0
  3  4  2  0
  4  5  1  0
  5  6  2  0
  6  7  1  0
  7  8  2  0
  8  9  1  0
  9 10  2  0
 10 11  1  0
 11 12  2  0
 11 13  1  0
  2 14  1  0
 14 15  2  0
 15 16  1  0
 16 17  1  0
 17 18  2  0
 18 19  1  0
 19 20  2  0
 20 21  1  0
 21 22  2  0
 22 23  1  0
 16 24  2  0
 24 25  1  0
 10  5  1  0
 25 14  1  0
 22 17  1  0
M  END
$$$$
