
     RDKit          3D

 25 27  0  0  0  0  0  0  0  0999 V2000
   29.9869  -23.1481   26.6893 C   0  0  0  0  0  0  0  0  0  0  0  0
   29.3683  -23.2480   25.3972 N   0  0  0  0  0  0  0  0  0  0  0  0
   30.1400  -23.2480   24.2558 N   0  0  0  0  0  0  0  0  0  0  0  0
   30.9038  -22.2452   23.8959 C   0  0  0  0  0  0  0  0  0  0  0  0
   31.0914  -21.9208   22.4939 C   0  0  0  0  0  0  0  0  0  0  0  0
   29.9694  -21.9353   21.6408 C   0  0  0  0  0  0  0  0  0  0  0  0
   30.0823  -21.6383   20.3116 C   0  0  0  0  0  0  0  0  0  0  0  0
   31.3103  -21.3111   19.7540 C   0  0  0  0  0  0  0  0  0  0  0  0
   32.3788  -21.3047   20.6019 C   0  0  0  0  0  0  0  0  0  0  0  0
   32.3008  -21.6051   21.9765 C   0  0  0  0  0  0  0  0  0  0  0  0
   33.5054  -21.5622   22.7609 C   0  0  0  0  0  0  0  0  0  0  0  0
   33.3926  -21.7486   24.0224 O   0  0  0  0  0  0  0  0  0  0  0  0
   34.7795  -21.3444   22.3300 O   0  0  0  0  0  0  0  0  0  0  0  0
   27.9223  -23.3489   25.3345 C   0  0  0  0  0  0  0  0  0  0  0  0
   27.1381  -23.1384   24.3148 N   0  0  0  0  0  0  0  0  0  0  0  0
   25.8384  -23.2708   24.4184 C   0  0  0  0  0  0  0  0  0  0  0  0
   24.9752  -23.0630   23.2246 C   0  0  0  0  0  0  0  0  0  0  0  0
   25.1263  -21.8888   22.4650 C   0  0  0  0  0  0  0  0  0  0  0  0
   24.3436  -21.6090   21.3759 C   0  0  0  0  0  0  0  0  0  0  0  0
   23.3708  -22.4849   20.9886 C   0  0  0  0  0  0  0  0  0  0  0  0
   23.2015  -23.6341   21.7094 C   0  0  0  0  0  0  0  0  0  0  0  0
   24.0090  -23.9156   22.8285 C   0  0  0  0  0  0  0  0  0  0  0  0
   23.6787  -25.3882   23.7188 Cl  0  0  0  0  0  0  0  0  0  0  0  0
   25.3549  -23.6379   25.6366 C   0  0  0  0  0  0  0  0  0  0  0  0
   26.8185  -23.7674   26.5616 S   0  0  0  0  0  0  0  0  0  0  0  0
  1  2  1  0
  2  3  1  0
  3  4  2  0
  4  5  1  0
  5  6  2  0
  6  7  1  0
  7  8  2  0
  8  9  1  0
  9 10  2  0
 10 11  1  0
 11 12  2  0
 11 13  1  0
  2 14  1  0
 14 15  2  0
 15 16  1  0
 16 17  1  0
 17 18  2  0
 18 19  1  0
 19 20  2  0
 20 21  1  0
 21 22  2  0
 22 23  1  0
 16 24  2  0
 24 25  1  0
 10  5  1  0
 25 14  1  0
 22 17  1  0
M  END
$$$$
