6TW5_9M2_holo_aligned_esmfold_protein
     RDKit          3D

 31 34  0  0  0  0  0  0  0  0999 V2000
   21.1427    2.3598  119.3653 C   0  0  0  0  0  0  0  0  0  0  0  0
   21.4721    3.6050  118.6050 C   0  0  0  0  0  0  0  0  0  0  0  0
   20.9740    4.7619  118.9802 N   0  0  0  0  0  0  0  0  0  0  0  0
   21.1945    5.6206  117.9443 N   0  0  0  0  0  0  0  0  0  0  0  0
   20.8231    7.0498  117.9560 C   0  0  0  0  0  0  0  0  0  0  0  0
   21.7515    4.9449  116.8648 C   0  0  0  0  0  0  0  0  0  0  0  0
   21.8620    5.5657  115.4972 C   0  0  0  0  0  0  0  0  0  0  0  0
   22.0883    3.6745  117.2811 C   0  0  0  0  0  0  0  0  0  0  0  0
   22.6924    2.5546  116.3896 C   0  0  0  0  0  0  0  0  0  0  0  0
   24.1982    2.1807  116.2960 C   0  0  0  0  0  0  0  0  0  0  0  0
   24.5872    3.6396  116.5051 O   0  0  0  0  0  0  0  0  0  0  0  0
   25.5417    4.2149  117.3470 C   0  0  0  0  0  0  0  0  0  0  0  0
   26.3002    3.4528  118.2535 C   0  0  0  0  0  0  0  0  0  0  0  0
   27.1632    4.0007  119.1925 C   0  0  0  0  0  0  0  0  0  0  0  0
   27.8122    3.2036  120.0693 F   0  0  0  0  0  0  0  0  0  0  0  0
   27.3636    5.3660  119.1995 C   0  0  0  0  0  0  0  0  0  0  0  0
   26.7251    6.1586  118.2524 C   0  0  0  0  0  0  0  0  0  0  0  0
   25.8070    5.6310  117.3104 C   0  0  0  0  0  0  0  0  0  0  0  0
   25.2640    6.6081  116.3025 C   0  0  0  0  0  0  0  0  0  0  0  0
   24.9123    6.2383  114.9859 C   0  0  0  0  0  0  0  0  0  0  0  0
   24.4977    7.1730  114.0212 C   0  0  0  0  0  0  0  0  0  0  0  0
   24.4387    8.5205  114.3541 C   0  0  0  0  0  0  0  0  0  0  0  0
   24.0911    9.5322  113.5862 N   0  0  0  0  0  0  0  0  0  0  0  0
   24.2622   10.6339  114.3909 N   0  0  0  0  0  0  0  0  0  0  0  0
   24.7259   10.2776  115.6473 C   0  0  0  0  0  0  0  0  0  0  0  0
   25.1326   11.1965  116.7589 C   0  0  0  0  0  0  0  0  0  0  0  0
   26.5958   11.0996  116.9166 N   0  0  0  0  0  0  0  0  0  0  0  0
   27.0883   11.3751  118.2757 C   0  0  0  0  0  0  0  0  0  0  0  0
   27.3979   11.7421  115.8585 C   0  0  0  0  0  0  0  0  0  0  0  0
   24.8017    8.9194  115.6319 C   0  0  0  0  0  0  0  0  0  0  0  0
   25.1852    7.9894  116.6018 C   0  0  0  0  0  0  0  0  0  0  0  0
  1  2  1  0
  2  3  2  0
  3  4  1  0
  4  5  1  0
  4  6  1  0
  6  7  1  0
  6  8  2  0
  8  9  1  0
  9 10  1  0
 10 11  1  0
 11 12  1  0
 12 13  2  0
 13 14  1  0
 14 15  1  0
 14 16  2  0
 16 17  1  0
 17 18  2  0
 18 19  1  0
 19 20  1  0
 20 21  2  0
 21 22  1  0
 22 23  2  0
 23 24  1  0
 24 25  1  0
 25 26  1  0
 26 27  1  0
 27 28  1  0
 27 29  1  0
 25 30  2  0
 30 31  1  0
  8  2  1  0
 18 12  1  0
 31 19  2  0
 30 22  1  0
M  END
