
     RDKit          3D

 31 34  0  0  0  0  0  0  0  0999 V2000
   22.8758    3.6241  118.9883 C   0  0  0  0  0  0  0  0  0  0  0  0
   24.0886    4.1314  118.3192 C   0  0  0  0  0  0  0  0  0  0  0  0
   24.7891    5.2107  118.7062 N   0  0  0  0  0  0  0  0  0  0  0  0
   25.8201    5.3815  117.8887 N   0  0  0  0  0  0  0  0  0  0  0  0
   26.8086    6.4652  118.0039 C   0  0  0  0  0  0  0  0  0  0  0  0
   25.8186    4.4217  116.9507 C   0  0  0  0  0  0  0  0  0  0  0  0
   26.8452    4.3314  115.8867 C   0  0  0  0  0  0  0  0  0  0  0  0
   24.7301    3.6204  117.2061 C   0  0  0  0  0  0  0  0  0  0  0  0
   24.3323    2.4621  116.4591 C   0  0  0  0  0  0  0  0  0  0  0  0
   25.2363    1.3575  116.1314 C   0  0  0  0  0  0  0  0  0  0  0  0
   26.3353    1.0424  116.8302 O   0  0  0  0  0  0  0  0  0  0  0  0
   26.9876   -0.0038  117.3572 C   0  0  0  0  0  0  0  0  0  0  0  0
   26.3968   -1.2404  117.5117 C   0  0  0  0  0  0  0  0  0  0  0  0
   27.1178   -2.2705  118.0518 C   0  0  0  0  0  0  0  0  0  0  0  0
   26.5211   -3.4700  118.1956 F   0  0  0  0  0  0  0  0  0  0  0  0
   28.4338   -2.0865  118.4439 C   0  0  0  0  0  0  0  0  0  0  0  0
   29.0080   -0.8366  118.2792 C   0  0  0  0  0  0  0  0  0  0  0  0
   28.3152    0.2291  117.7391 C   0  0  0  0  0  0  0  0  0  0  0  0
   28.9747    1.5287  117.5982 C   0  0  0  0  0  0  0  0  0  0  0  0
   29.5137    1.8368  116.3416 C   0  0  0  0  0  0  0  0  0  0  0  0
   30.1860    3.0187  116.1161 C   0  0  0  0  0  0  0  0  0  0  0  0
   30.3165    3.9001  117.1678 C   0  0  0  0  0  0  0  0  0  0  0  0
   30.9279    5.1025  117.2528 N   0  0  0  0  0  0  0  0  0  0  0  0
   30.8179    5.5835  118.4641 N   0  0  0  0  0  0  0  0  0  0  0  0
   30.1255    4.7193  119.2394 C   0  0  0  0  0  0  0  0  0  0  0  0
   29.7672    4.9181  120.6443 C   0  0  0  0  0  0  0  0  0  0  0  0
   28.7716    5.9194  120.8978 N   0  0  0  0  0  0  0  0  0  0  0  0
   29.3308    7.2674  120.7981 C   0  0  0  0  0  0  0  0  0  0  0  0
   27.5760    5.8001  120.0887 C   0  0  0  0  0  0  0  0  0  0  0  0
   29.8031    3.6500  118.4317 C   0  0  0  0  0  0  0  0  0  0  0  0
   29.1319    2.4362  118.5993 C   0  0  0  0  0  0  0  0  0  0  0  0
  1  2  1  0
  2  3  2  0
  3  4  1  0
  4  5  1  0
  4  6  1  0
  6  7  1  0
  6  8  2  0
  8  9  1  0
  9 10  1  0
 10 11  1  0
 11 12  1  0
 12 13  2  0
 13 14  1  0
 14 15  1  0
 14 16  2  0
 16 17  1  0
 17 18  2  0
 18 19  1  0
 19 20  1  0
 20 21  2  0
 21 22  1  0
 22 23  2  0
 23 24  1  0
 24 25  1  0
 25 26  1  0
 26 27  1  0
 27 28  1  0
 27 29  1  0
 25 30  2  0
 30 31  1  0
  8  2  1  0
 18 12  1  0
 31 19  2  0
 30 22  1  0
M  END
$$$$
