
     RDKit          3D

 31 34  0  0  0  0  0  0  0  0999 V2000
    0.8685   25.8437  100.2811 C   0  0  0  0  0  0  0  0  0  0  0  0
    1.3590   25.3272   98.9894 C   0  0  0  0  0  0  0  0  0  0  0  0
    0.7117   25.4400   97.8174 N   0  0  0  0  0  0  0  0  0  0  0  0
    1.4338   24.8715   96.8604 N   0  0  0  0  0  0  0  0  0  0  0  0
    1.0398   24.8020   95.4444 C   0  0  0  0  0  0  0  0  0  0  0  0
    2.5664   24.3749   97.3815 C   0  0  0  0  0  0  0  0  0  0  0  0
    3.5910   23.6783   96.5696 C   0  0  0  0  0  0  0  0  0  0  0  0
    2.5377   24.6533   98.7284 C   0  0  0  0  0  0  0  0  0  0  0  0
    3.5468   24.3125   99.6893 C   0  0  0  0  0  0  0  0  0  0  0  0
    4.3406   25.3034  100.4192 C   0  0  0  0  0  0  0  0  0  0  0  0
    5.3768   25.9771   99.9019 O   0  0  0  0  0  0  0  0  0  0  0  0
    6.3099   26.8860  100.2199 C   0  0  0  0  0  0  0  0  0  0  0  0
    6.5011   27.3264  101.5128 C   0  0  0  0  0  0  0  0  0  0  0  0
    7.4743   28.2525  101.7737 C   0  0  0  0  0  0  0  0  0  0  0  0
    7.6434   28.6706  103.0434 F   0  0  0  0  0  0  0  0  0  0  0  0
    8.2700   28.7519  100.7554 C   0  0  0  0  0  0  0  0  0  0  0  0
    8.0615   28.2955   99.4642 C   0  0  0  0  0  0  0  0  0  0  0  0
    7.0901   27.3625   99.1584 C   0  0  0  0  0  0  0  0  0  0  0  0
    6.9125   26.9254   97.7723 C   0  0  0  0  0  0  0  0  0  0  0  0
    6.5629   25.5837   97.5671 C   0  0  0  0  0  0  0  0  0  0  0  0
    6.4082   25.0652   96.2995 C   0  0  0  0  0  0  0  0  0  0  0  0
    6.6075   25.9075   95.2268 C   0  0  0  0  0  0  0  0  0  0  0  0
    6.5483   25.6845   93.8950 N   0  0  0  0  0  0  0  0  0  0  0  0
    6.8307   26.7796   93.2379 N   0  0  0  0  0  0  0  0  0  0  0  0
    7.0900   27.7818   94.1072 C   0  0  0  0  0  0  0  0  0  0  0  0
    7.4118   29.1658   93.7566 C   0  0  0  0  0  0  0  0  0  0  0  0
    6.2886   30.0375   93.5659 N   0  0  0  0  0  0  0  0  0  0  0  0
    5.2320   29.3874   92.7907 C   0  0  0  0  0  0  0  0  0  0  0  0
    5.7522   30.6065   94.7854 C   0  0  0  0  0  0  0  0  0  0  0  0
    6.9529   27.2433   95.3685 C   0  0  0  0  0  0  0  0  0  0  0  0
    7.0951   27.7114   96.6772 C   0  0  0  0  0  0  0  0  0  0  0  0
  1  2  1  0
  2  3  2  0
  3  4  1  0
  4  5  1  0
  4  6  1  0
  6  7  1  0
  6  8  2  0
  8  9  1  0
  9 10  1  0
 10 11  1  0
 11 12  1  0
 12 13  2  0
 13 14  1  0
 14 15  1  0
 14 16  2  0
 16 17  1  0
 17 18  2  0
 18 19  1  0
 19 20  1  0
 20 21  2  0
 21 22  1  0
 22 23  2  0
 23 24  1  0
 24 25  1  0
 25 26  1  0
 26 27  1  0
 27 28  1  0
 27 29  1  0
 25 30  2  0
 30 31  1  0
  8  2  1  0
 18 12  1  0
 31 19  2  0
 30 22  1  0
M  END
$$$$
