
     RDKit          3D

 31 34  0  0  0  0  0  0  0  0999 V2000
    3.8147   27.3351   99.0120 C   0  0  0  0  0  0  0  0  0  0  0  0
    4.8417   26.9932   98.0100 C   0  0  0  0  0  0  0  0  0  0  0  0
    4.6808   27.0820   96.6789 N   0  0  0  0  0  0  0  0  0  0  0  0
    5.7996   26.7026   96.0751 N   0  0  0  0  0  0  0  0  0  0  0  0
    5.9933   26.6690   94.6168 C   0  0  0  0  0  0  0  0  0  0  0  0
    6.7157   26.3577   96.9930 C   0  0  0  0  0  0  0  0  0  0  0  0
    8.0762   25.8902   96.6397 C   0  0  0  0  0  0  0  0  0  0  0  0
    6.1283   26.5347   98.2243 C   0  0  0  0  0  0  0  0  0  0  0  0
    6.7378   26.2933   99.5003 C   0  0  0  0  0  0  0  0  0  0  0  0
    7.0025   27.3441  100.4854 C   0  0  0  0  0  0  0  0  0  0  0  0
    7.6959   28.4629  100.2350 O   0  0  0  0  0  0  0  0  0  0  0  0
    7.9966   29.6588  100.7615 C   0  0  0  0  0  0  0  0  0  0  0  0
    7.7489   29.9671  102.0827 C   0  0  0  0  0  0  0  0  0  0  0  0
    8.0839   31.2046  102.5616 C   0  0  0  0  0  0  0  0  0  0  0  0
    7.8317   31.4859  103.8550 F   0  0  0  0  0  0  0  0  0  0  0  0
    8.6695   32.1504  101.7358 C   0  0  0  0  0  0  0  0  0  0  0  0
    8.9101   31.8197  100.4123 C   0  0  0  0  0  0  0  0  0  0  0  0
    8.5868   30.5829   99.8895 C   0  0  0  0  0  0  0  0  0  0  0  0
    8.8585   30.2959   98.4797 C   0  0  0  0  0  0  0  0  0  0  0  0
   10.1962   30.0842   98.1187 C   0  0  0  0  0  0  0  0  0  0  0  0
   10.5602   29.8433   96.8114 C   0  0  0  0  0  0  0  0  0  0  0  0
    9.5659   29.8149   95.8573 C   0  0  0  0  0  0  0  0  0  0  0  0
    9.6186   29.6260   94.5199 N   0  0  0  0  0  0  0  0  0  0  0  0
    8.4194   29.6989   94.0031 N   0  0  0  0  0  0  0  0  0  0  0  0
    7.5140   29.9394   94.9777 C   0  0  0  0  0  0  0  0  0  0  0  0
    6.0658   30.0533   94.8004 C   0  0  0  0  0  0  0  0  0  0  0  0
    5.5338   29.4477   93.6138 N   0  0  0  0  0  0  0  0  0  0  0  0
    5.5937   30.3618   92.4733 C   0  0  0  0  0  0  0  0  0  0  0  0
    6.1203   28.1672   93.2747 C   0  0  0  0  0  0  0  0  0  0  0  0
    8.2263   30.0156   96.1553 C   0  0  0  0  0  0  0  0  0  0  0  0
    7.9187   30.2550   97.4969 C   0  0  0  0  0  0  0  0  0  0  0  0
  1  2  1  0
  2  3  2  0
  3  4  1  0
  4  5  1  0
  4  6  1  0
  6  7  1  0
  6  8  2  0
  8  9  1  0
  9 10  1  0
 10 11  1  0
 11 12  1  0
 12 13  2  0
 13 14  1  0
 14 15  1  0
 14 16  2  0
 16 17  1  0
 17 18  2  0
 18 19  1  0
 19 20  1  0
 20 21  2  0
 21 22  1  0
 22 23  2  0
 23 24  1  0
 24 25  1  0
 25 26  1  0
 26 27  1  0
 27 28  1  0
 27 29  1  0
 25 30  2  0
 30 31  1  0
  8  2  1  0
 18 12  1  0
 31 19  2  0
 30 22  1  0
M  END
$$$$
