
     RDKit          3D

 31 34  0  0  0  0  0  0  0  0999 V2000
   -0.4928  -12.0514   92.0242 C   0  0  0  0  0  0  0  0  0  0  0  0
    0.9531  -12.3066   92.1658 C   0  0  0  0  0  0  0  0  0  0  0  0
    1.5118  -13.5197   92.3130 N   0  0  0  0  0  0  0  0  0  0  0  0
    2.8287  -13.3883   92.4073 N   0  0  0  0  0  0  0  0  0  0  0  0
    3.7709  -14.5055   92.5777 C   0  0  0  0  0  0  0  0  0  0  0  0
    3.1618  -12.0909   92.3246 C   0  0  0  0  0  0  0  0  0  0  0  0
    4.5615  -11.6110   92.3932 C   0  0  0  0  0  0  0  0  0  0  0  0
    1.9881  -11.3899   92.1715 C   0  0  0  0  0  0  0  0  0  0  0  0
    1.8580   -9.9677   92.0371 C   0  0  0  0  0  0  0  0  0  0  0  0
    1.1218   -9.3189   90.9499 C   0  0  0  0  0  0  0  0  0  0  0  0
    1.5486   -9.2445   89.6820 O   0  0  0  0  0  0  0  0  0  0  0  0
    1.1518   -8.8804   88.4541 C   0  0  0  0  0  0  0  0  0  0  0  0
   -0.0723   -8.2901   88.2185 C   0  0  0  0  0  0  0  0  0  0  0  0
   -0.4170   -7.9364   86.9422 C   0  0  0  0  0  0  0  0  0  0  0  0
   -1.6182   -7.3627   86.7337 F   0  0  0  0  0  0  0  0  0  0  0  0
    0.4489   -8.1631   85.8847 C   0  0  0  0  0  0  0  0  0  0  0  0
    1.6736   -8.7565   86.1436 C   0  0  0  0  0  0  0  0  0  0  0  0
    2.0595   -9.1289   87.4164 C   0  0  0  0  0  0  0  0  0  0  0  0
    3.3641   -9.7600   87.6252 C   0  0  0  0  0  0  0  0  0  0  0  0
    4.0991   -9.3483   88.7453 C   0  0  0  0  0  0  0  0  0  0  0  0
    5.3533   -9.8549   89.0101 C   0  0  0  0  0  0  0  0  0  0  0  0
    5.8727  -10.7866   88.1371 C   0  0  0  0  0  0  0  0  0  0  0  0
    7.0600  -11.4323   88.1249 N   0  0  0  0  0  0  0  0  0  0  0  0
    7.1363  -12.2235   87.0862 N   0  0  0  0  0  0  0  0  0  0  0  0
    5.9989  -12.1385   86.3607 C   0  0  0  0  0  0  0  0  0  0  0  0
    5.6914  -12.8966   85.1472 C   0  0  0  0  0  0  0  0  0  0  0  0
    5.2546  -14.2478   85.3506 N   0  0  0  0  0  0  0  0  0  0  0  0
    6.3566  -15.1071   85.7833 C   0  0  0  0  0  0  0  0  0  0  0  0
    4.1179  -14.3877   86.2376 C   0  0  0  0  0  0  0  0  0  0  0  0
    5.1915  -11.2325   87.0142 C   0  0  0  0  0  0  0  0  0  0  0  0
    3.9251  -10.6833   86.7986 C   0  0  0  0  0  0  0  0  0  0  0  0
  1  2  1  0
  2  3  2  0
  3  4  1  0
  4  5  1  0
  4  6  1  0
  6  7  1  0
  6  8  2  0
  8  9  1  0
  9 10  1  0
 10 11  1  0
 11 12  1  0
 12 13  2  0
 13 14  1  0
 14 15  1  0
 14 16  2  0
 16 17  1  0
 17 18  2  0
 18 19  1  0
 19 20  1  0
 20 21  2  0
 21 22  1  0
 22 23  2  0
 23 24  1  0
 24 25  1  0
 25 26  1  0
 26 27  1  0
 27 28  1  0
 27 29  1  0
 25 30  2  0
 30 31  1  0
  8  2  1  0
 18 12  1  0
 31 19  2  0
 30 22  1  0
M  END
$$$$
