
     RDKit          3D

 31 34  0  0  0  0  0  0  0  0999 V2000
   -0.2171  -12.6286   92.0952 C   0  0  0  0  0  0  0  0  0  0  0  0
    1.2454  -12.4531   92.1720 C   0  0  0  0  0  0  0  0  0  0  0  0
    2.1464  -13.4479   92.1070 N   0  0  0  0  0  0  0  0  0  0  0  0
    3.3685  -12.9405   92.2035 N   0  0  0  0  0  0  0  0  0  0  0  0
    4.6081  -13.7326   92.1720 C   0  0  0  0  0  0  0  0  0  0  0  0
    3.2967  -11.6068   92.3336 C   0  0  0  0  0  0  0  0  0  0  0  0
    4.4930  -10.7427   92.4617 C   0  0  0  0  0  0  0  0  0  0  0  0
    1.9609  -11.2788   92.3160 C   0  0  0  0  0  0  0  0  0  0  0  0
    1.4072   -9.9597   92.4225 C   0  0  0  0  0  0  0  0  0  0  0  0
    1.4880   -8.9569   91.3582 C   0  0  0  0  0  0  0  0  0  0  0  0
    1.7195   -9.2353   90.0682 O   0  0  0  0  0  0  0  0  0  0  0  0
    1.4186   -8.8224   88.8285 C   0  0  0  0  0  0  0  0  0  0  0  0
    0.2377   -8.1742   88.5325 C   0  0  0  0  0  0  0  0  0  0  0  0
   -0.0085   -7.7728   87.2476 C   0  0  0  0  0  0  0  0  0  0  0  0
   -1.1690   -7.1428   86.9796 F   0  0  0  0  0  0  0  0  0  0  0  0
    0.9142   -8.0085   86.2413 C   0  0  0  0  0  0  0  0  0  0  0  0
    2.0940   -8.6605   86.5606 C   0  0  0  0  0  0  0  0  0  0  0  0
    2.3808   -9.0823   87.8440 C   0  0  0  0  0  0  0  0  0  0  0  0
    3.6420   -9.7740   88.1173 C   0  0  0  0  0  0  0  0  0  0  0  0
    4.2273   -9.5599   89.3727 C   0  0  0  0  0  0  0  0  0  0  0  0
    5.4321  -10.1358   89.7137 C   0  0  0  0  0  0  0  0  0  0  0  0
    6.0542  -10.9364   88.7800 C   0  0  0  0  0  0  0  0  0  0  0  0
    7.2281  -11.6053   88.8194 N   0  0  0  0  0  0  0  0  0  0  0  0
    7.4337  -12.2293   87.6885 N   0  0  0  0  0  0  0  0  0  0  0  0
    6.4017  -12.0023   86.8454 C   0  0  0  0  0  0  0  0  0  0  0  0
    6.2500  -12.5561   85.4993 C   0  0  0  0  0  0  0  0  0  0  0  0
    6.0596  -13.9761   85.4276 N   0  0  0  0  0  0  0  0  0  0  0  0
    6.2028  -14.6025   86.7418 C   0  0  0  0  0  0  0  0  0  0  0  0
    4.8226  -14.3882   84.7963 C   0  0  0  0  0  0  0  0  0  0  0  0
    5.5225  -11.1854   87.5234 C   0  0  0  0  0  0  0  0  0  0  0  0
    4.2995  -10.5746   87.2355 C   0  0  0  0  0  0  0  0  0  0  0  0
  1  2  1  0
  2  3  2  0
  3  4  1  0
  4  5  1  0
  4  6  1  0
  6  7  1  0
  6  8  2  0
  8  9  1  0
  9 10  1  0
 10 11  1  0
 11 12  1  0
 12 13  2  0
 13 14  1  0
 14 15  1  0
 14 16  2  0
 16 17  1  0
 17 18  2  0
 18 19  1  0
 19 20  1  0
 20 21  2  0
 21 22  1  0
 22 23  2  0
 23 24  1  0
 24 25  1  0
 25 26  1  0
 26 27  1  0
 27 28  1  0
 27 29  1  0
 25 30  2  0
 30 31  1  0
  8  2  1  0
 18 12  1  0
 31 19  2  0
 30 22  1  0
M  END
$$$$
