
     RDKit          3D

 31 34  0  0  0  0  0  0  0  0999 V2000
    0.4821   25.9426  100.1097 C   0  0  0  0  0  0  0  0  0  0  0  0
    1.1270   25.3877   98.9048 C   0  0  0  0  0  0  0  0  0  0  0  0
    0.6782   25.5440   97.6480 N   0  0  0  0  0  0  0  0  0  0  0  0
    1.4959   24.9213   96.8090 N   0  0  0  0  0  0  0  0  0  0  0  0
    1.3210   24.8766   95.3486 C   0  0  0  0  0  0  0  0  0  0  0  0
    2.4954   24.3448   97.4941 C   0  0  0  0  0  0  0  0  0  0  0  0
    3.5795   23.5726   96.8439 C   0  0  0  0  0  0  0  0  0  0  0  0
    2.2797   24.6286   98.8228 C   0  0  0  0  0  0  0  0  0  0  0  0
    3.1011   24.2178   99.9248 C   0  0  0  0  0  0  0  0  0  0  0  0
    4.5143   24.5768  100.0621 C   0  0  0  0  0  0  0  0  0  0  0  0
    5.0324   25.7653   99.7244 O   0  0  0  0  0  0  0  0  0  0  0  0
    5.9020   26.6957  100.1440 C   0  0  0  0  0  0  0  0  0  0  0  0
    5.9972   27.0740  101.4669 C   0  0  0  0  0  0  0  0  0  0  0  0
    6.9093   28.0263  101.8329 C   0  0  0  0  0  0  0  0  0  0  0  0
    6.9848   28.3826  103.1301 F   0  0  0  0  0  0  0  0  0  0  0  0
    7.7384   28.6139  100.8912 C   0  0  0  0  0  0  0  0  0  0  0  0
    7.6266   28.2188   99.5681 C   0  0  0  0  0  0  0  0  0  0  0  0
    6.7193   27.2621   99.1572 C   0  0  0  0  0  0  0  0  0  0  0  0
    6.6429   26.8927   97.7424 C   0  0  0  0  0  0  0  0  0  0  0  0
    6.2776   25.5720   97.4475 C   0  0  0  0  0  0  0  0  0  0  0  0
    6.2125   25.1154   96.1487 C   0  0  0  0  0  0  0  0  0  0  0  0
    6.5183   25.9988   95.1358 C   0  0  0  0  0  0  0  0  0  0  0  0
    6.5609   25.8373   93.7945 N   0  0  0  0  0  0  0  0  0  0  0  0
    6.9224   26.9522   93.2140 N   0  0  0  0  0  0  0  0  0  0  0  0
    7.1358   27.9067   94.1470 C   0  0  0  0  0  0  0  0  0  0  0  0
    7.5192   29.2952   93.8882 C   0  0  0  0  0  0  0  0  0  0  0  0
    6.4375   30.2042   93.6398 N   0  0  0  0  0  0  0  0  0  0  0  0
    5.9229   30.0643   92.2776 C   0  0  0  0  0  0  0  0  0  0  0  0
    5.3585   30.1364   94.6041 C   0  0  0  0  0  0  0  0  0  0  0  0
    6.8843   27.3165   95.3670 C   0  0  0  0  0  0  0  0  0  0  0  0
    6.9324   27.7213   96.7032 C   0  0  0  0  0  0  0  0  0  0  0  0
  1  2  1  0
  2  3  2  0
  3  4  1  0
  4  5  1  0
  4  6  1  0
  6  7  1  0
  6  8  2  0
  8  9  1  0
  9 10  1  0
 10 11  1  0
 11 12  1  0
 12 13  2  0
 13 14  1  0
 14 15  1  0
 14 16  2  0
 16 17  1  0
 17 18  2  0
 18 19  1  0
 19 20  1  0
 20 21  2  0
 21 22  1  0
 22 23  2  0
 23 24  1  0
 24 25  1  0
 25 26  1  0
 26 27  1  0
 27 28  1  0
 27 29  1  0
 25 30  2  0
 30 31  1  0
  8  2  1  0
 18 12  1  0
 31 19  2  0
 30 22  1  0
M  END
$$$$
