
     RDKit          3D

 31 34  0  0  0  0  0  0  0  0999 V2000
    0.6778   25.3193  100.6911 C   0  0  0  0  0  0  0  0  0  0  0  0
    1.0435   25.1025   99.2787 C   0  0  0  0  0  0  0  0  0  0  0  0
    0.2521   25.3714   98.2267 N   0  0  0  0  0  0  0  0  0  0  0  0
    0.8916   25.0629   97.1058 N   0  0  0  0  0  0  0  0  0  0  0  0
    0.3344   25.2232   95.7534 C   0  0  0  0  0  0  0  0  0  0  0  0
    2.1120   24.5865   97.3966 C   0  0  0  0  0  0  0  0  0  0  0  0
    3.0778   24.1541   96.3600 C   0  0  0  0  0  0  0  0  0  0  0  0
    2.2273   24.6036   98.7673 C   0  0  0  0  0  0  0  0  0  0  0  0
    3.3677   24.1854   99.5305 C   0  0  0  0  0  0  0  0  0  0  0  0
    4.2044   25.1018  100.3083 C   0  0  0  0  0  0  0  0  0  0  0  0
    5.1159   25.9307   99.7816 O   0  0  0  0  0  0  0  0  0  0  0  0
    5.9581   26.9206  100.1111 C   0  0  0  0  0  0  0  0  0  0  0  0
    6.0064   27.4568  101.3809 C   0  0  0  0  0  0  0  0  0  0  0  0
    6.8925   28.4629  101.6558 C   0  0  0  0  0  0  0  0  0  0  0  0
    6.9221   28.9739  102.9022 F   0  0  0  0  0  0  0  0  0  0  0  0
    7.7420   28.9481  100.6747 C   0  0  0  0  0  0  0  0  0  0  0  0
    7.6774   28.3948   99.4063 C   0  0  0  0  0  0  0  0  0  0  0  0
    6.7975   27.3791   99.0875 C   0  0  0  0  0  0  0  0  0  0  0  0
    6.7708   26.8409   97.7261 C   0  0  0  0  0  0  0  0  0  0  0  0
    6.6857   25.4482   97.5930 C   0  0  0  0  0  0  0  0  0  0  0  0
    6.6908   24.8410   96.3557 C   0  0  0  0  0  0  0  0  0  0  0  0
    6.7824   25.6455   95.2402 C   0  0  0  0  0  0  0  0  0  0  0  0
    6.8298   25.3424   93.9238 N   0  0  0  0  0  0  0  0  0  0  0  0
    6.9362   26.4332   93.2100 N   0  0  0  0  0  0  0  0  0  0  0  0
    6.9634   27.5125   94.0234 C   0  0  0  0  0  0  0  0  0  0  0  0
    7.0403   28.9109   93.5984 C   0  0  0  0  0  0  0  0  0  0  0  0
    5.7985   29.5115   93.2045 N   0  0  0  0  0  0  0  0  0  0  0  0
    4.8317   29.5111   94.3023 C   0  0  0  0  0  0  0  0  0  0  0  0
    5.9235   30.8368   92.6331 C   0  0  0  0  0  0  0  0  0  0  0  0
    6.8676   27.0281   95.3102 C   0  0  0  0  0  0  0  0  0  0  0  0
    6.8575   27.5858   96.5911 C   0  0  0  0  0  0  0  0  0  0  0  0
  1  2  1  0
  2  3  2  0
  3  4  1  0
  4  5  1  0
  4  6  1  0
  6  7  1  0
  6  8  2  0
  8  9  1  0
  9 10  1  0
 10 11  1  0
 11 12  1  0
 12 13  2  0
 13 14  1  0
 14 15  1  0
 14 16  2  0
 16 17  1  0
 17 18  2  0
 18 19  1  0
 19 20  1  0
 20 21  2  0
 21 22  1  0
 22 23  2  0
 23 24  1  0
 24 25  1  0
 25 26  1  0
 26 27  1  0
 27 28  1  0
 27 29  1  0
 25 30  2  0
 30 31  1  0
  8  2  1  0
 18 12  1  0
 31 19  2  0
 30 22  1  0
M  END
$$$$
