
     RDKit          3D

 31 34  0  0  0  0  0  0  0  0999 V2000
    3.0262   26.5281   99.7247 C   0  0  0  0  0  0  0  0  0  0  0  0
    4.2470   26.3620   98.9137 C   0  0  0  0  0  0  0  0  0  0  0  0
    4.2728   26.2227   97.5776 N   0  0  0  0  0  0  0  0  0  0  0  0
    5.5304   26.1003   97.1729 N   0  0  0  0  0  0  0  0  0  0  0  0
    5.9455   25.9287   95.7717 C   0  0  0  0  0  0  0  0  0  0  0  0
    6.3544   26.1562   98.2307 C   0  0  0  0  0  0  0  0  0  0  0  0
    7.8274   26.0526   98.1127 C   0  0  0  0  0  0  0  0  0  0  0  0
    5.5610   26.3216   99.3422 C   0  0  0  0  0  0  0  0  0  0  0  0
    6.0112   26.4364  100.6994 C   0  0  0  0  0  0  0  0  0  0  0  0
    7.0475   27.3752  101.1343 C   0  0  0  0  0  0  0  0  0  0  0  0
    7.3501   28.5183  100.5041 O   0  0  0  0  0  0  0  0  0  0  0  0
    7.7549   29.7756  100.7342 C   0  0  0  0  0  0  0  0  0  0  0  0
    7.5785   30.3967  101.9530 C   0  0  0  0  0  0  0  0  0  0  0  0
    8.0189   31.6807  102.1266 C   0  0  0  0  0  0  0  0  0  0  0  0
    7.8350   32.2695  103.3245 F   0  0  0  0  0  0  0  0  0  0  0  0
    8.6404   32.3635  101.0936 C   0  0  0  0  0  0  0  0  0  0  0  0
    8.8081   31.7208   99.8779 C   0  0  0  0  0  0  0  0  0  0  0  0
    8.3778   30.4264   99.6613 C   0  0  0  0  0  0  0  0  0  0  0  0
    8.5764   29.8039   98.3510 C   0  0  0  0  0  0  0  0  0  0  0  0
    9.3888   28.6627   98.3042 C   0  0  0  0  0  0  0  0  0  0  0  0
    9.6672   28.0247   97.1146 C   0  0  0  0  0  0  0  0  0  0  0  0
    9.1209   28.5416   95.9595 C   0  0  0  0  0  0  0  0  0  0  0  0
    9.2301   28.1524   94.6698 N   0  0  0  0  0  0  0  0  0  0  0  0
    8.5491   28.9552   93.8936 N   0  0  0  0  0  0  0  0  0  0  0  0
    7.9550   29.9160   94.6362 C   0  0  0  0  0  0  0  0  0  0  0  0
    7.0816   30.9774   94.1340 C   0  0  0  0  0  0  0  0  0  0  0  0
    5.7031   30.6199   93.9603 N   0  0  0  0  0  0  0  0  0  0  0  0
    5.0813   30.2517   95.2322 C   0  0  0  0  0  0  0  0  0  0  0  0
    4.9050   31.6114   93.2686 C   0  0  0  0  0  0  0  0  0  0  0  0
    8.3092   29.6662   95.9446 C   0  0  0  0  0  0  0  0  0  0  0  0
    8.0627   30.2693   97.1805 C   0  0  0  0  0  0  0  0  0  0  0  0
  1  2  1  0
  2  3  2  0
  3  4  1  0
  4  5  1  0
  4  6  1  0
  6  7  1  0
  6  8  2  0
  8  9  1  0
  9 10  1  0
 10 11  1  0
 11 12  1  0
 12 13  2  0
 13 14  1  0
 14 15  1  0
 14 16  2  0
 16 17  1  0
 17 18  2  0
 18 19  1  0
 19 20  1  0
 20 21  2  0
 21 22  1  0
 22 23  2  0
 23 24  1  0
 24 25  1  0
 25 26  1  0
 26 27  1  0
 27 28  1  0
 27 29  1  0
 25 30  2  0
 30 31  1  0
  8  2  1  0
 18 12  1  0
 31 19  2  0
 30 22  1  0
M  END
$$$$
