
     RDKit          3D

 31 34  0  0  0  0  0  0  0  0999 V2000
   -0.2426  -12.1054   92.6758 C   0  0  0  0  0  0  0  0  0  0  0  0
    1.2050  -12.2604   92.4385 C   0  0  0  0  0  0  0  0  0  0  0  0
    1.8365  -13.4329   92.2598 N   0  0  0  0  0  0  0  0  0  0  0  0
    3.1302  -13.2101   92.0678 N   0  0  0  0  0  0  0  0  0  0  0  0
    4.1350  -14.2603   91.8383 C   0  0  0  0  0  0  0  0  0  0  0  0
    3.3753  -11.8916   92.1163 C   0  0  0  0  0  0  0  0  0  0  0  0
    4.7276  -11.3147   91.9355 C   0  0  0  0  0  0  0  0  0  0  0  0
    2.1690  -11.2732   92.3501 C   0  0  0  0  0  0  0  0  0  0  0  0
    1.9467   -9.8615   92.4754 C   0  0  0  0  0  0  0  0  0  0  0  0
    1.4218   -9.0233   91.3953 C   0  0  0  0  0  0  0  0  0  0  0  0
    1.8615   -9.0512   90.1299 O   0  0  0  0  0  0  0  0  0  0  0  0
    1.5071   -8.7145   88.8814 C   0  0  0  0  0  0  0  0  0  0  0  0
    0.2262   -8.3173   88.5592 C   0  0  0  0  0  0  0  0  0  0  0  0
   -0.0715   -7.9811   87.2665 C   0  0  0  0  0  0  0  0  0  0  0  0
   -1.3294   -7.5975   86.9729 F   0  0  0  0  0  0  0  0  0  0  0  0
    0.8981   -8.0338   86.2783 C   0  0  0  0  0  0  0  0  0  0  0  0
    2.1783   -8.4347   86.6237 C   0  0  0  0  0  0  0  0  0  0  0  0
    2.5199   -8.7828   87.9159 C   0  0  0  0  0  0  0  0  0  0  0  0
    3.8886   -9.2067   88.2171 C   0  0  0  0  0  0  0  0  0  0  0  0
    4.5029   -8.6286   89.3364 C   0  0  0  0  0  0  0  0  0  0  0  0
    5.8016   -8.9334   89.6833 C   0  0  0  0  0  0  0  0  0  0  0  0
    6.4888   -9.8306   88.8942 C   0  0  0  0  0  0  0  0  0  0  0  0
    7.7545  -10.2987   88.9712 N   0  0  0  0  0  0  0  0  0  0  0  0
    7.9919  -11.1303   87.9901 N   0  0  0  0  0  0  0  0  0  0  0  0
    6.8905  -11.2523   87.2159 C   0  0  0  0  0  0  0  0  0  0  0  0
    6.7523  -12.1165   86.0429 C   0  0  0  0  0  0  0  0  0  0  0  0
    5.9181  -13.2709   86.2145 N   0  0  0  0  0  0  0  0  0  0  0  0
    6.2076  -13.9583   87.4730 C   0  0  0  0  0  0  0  0  0  0  0  0
    4.4982  -13.0140   86.0864 C   0  0  0  0  0  0  0  0  0  0  0  0
    5.9327  -10.4348   87.7764 C   0  0  0  0  0  0  0  0  0  0  0  0
    4.6136  -10.0868   87.4753 C   0  0  0  0  0  0  0  0  0  0  0  0
  1  2  1  0
  2  3  2  0
  3  4  1  0
  4  5  1  0
  4  6  1  0
  6  7  1  0
  6  8  2  0
  8  9  1  0
  9 10  1  0
 10 11  1  0
 11 12  1  0
 12 13  2  0
 13 14  1  0
 14 15  1  0
 14 16  2  0
 16 17  1  0
 17 18  2  0
 18 19  1  0
 19 20  1  0
 20 21  2  0
 21 22  1  0
 22 23  2  0
 23 24  1  0
 24 25  1  0
 25 26  1  0
 26 27  1  0
 27 28  1  0
 27 29  1  0
 25 30  2  0
 30 31  1  0
  8  2  1  0
 18 12  1  0
 31 19  2  0
 30 22  1  0
M  END
$$$$
