
     RDKit          3D

 31 34  0  0  0  0  0  0  0  0999 V2000
   19.7409    4.5793  121.5743 C   0  0  0  0  0  0  0  0  0  0  0  0
   20.7607    5.5171  121.0680 C   0  0  0  0  0  0  0  0  0  0  0  0
   21.1609    6.6350  121.6969 N   0  0  0  0  0  0  0  0  0  0  0  0
   22.0905    7.2398  120.9686 N   0  0  0  0  0  0  0  0  0  0  0  0
   22.7609    8.4952  121.3424 C   0  0  0  0  0  0  0  0  0  0  0  0
   22.3196    6.5349  119.8499 C   0  0  0  0  0  0  0  0  0  0  0  0
   23.3080    6.9450  118.8256 C   0  0  0  0  0  0  0  0  0  0  0  0
   21.4873    5.4405  119.8942 C   0  0  0  0  0  0  0  0  0  0  0  0
   21.3912    4.4041  118.9071 C   0  0  0  0  0  0  0  0  0  0  0  0
   22.1554    4.3995  117.6578 C   0  0  0  0  0  0  0  0  0  0  0  0
   23.4372    4.0235  117.5527 O   0  0  0  0  0  0  0  0  0  0  0  0
   24.2079    2.9460  117.3455 C   0  0  0  0  0  0  0  0  0  0  0  0
   23.6889    1.6703  117.2717 C   0  0  0  0  0  0  0  0  0  0  0  0
   24.5280    0.6116  117.0529 C   0  0  0  0  0  0  0  0  0  0  0  0
   24.0007   -0.6265  116.9860 F   0  0  0  0  0  0  0  0  0  0  0  0
   25.8916    0.8059  116.9036 C   0  0  0  0  0  0  0  0  0  0  0  0
   26.3917    2.0955  116.9806 C   0  0  0  0  0  0  0  0  0  0  0  0
   25.5796    3.1907  117.2006 C   0  0  0  0  0  0  0  0  0  0  0  0
   26.1690    4.5287  117.2802 C   0  0  0  0  0  0  0  0  0  0  0  0
   25.4024    5.5931  116.7865 C   0  0  0  0  0  0  0  0  0  0  0  0
   25.8819    6.8853  116.7825 C   0  0  0  0  0  0  0  0  0  0  0  0
   27.1473    7.1078  117.2814 C   0  0  0  0  0  0  0  0  0  0  0  0
   27.8777    8.2401  117.3871 N   0  0  0  0  0  0  0  0  0  0  0  0
   29.0474    7.9792  117.9110 N   0  0  0  0  0  0  0  0  0  0  0  0
   29.1455    6.6577  118.1781 C   0  0  0  0  0  0  0  0  0  0  0  0
   30.2879    5.9858  118.7989 C   0  0  0  0  0  0  0  0  0  0  0  0
   30.2222    5.8335  120.2238 N   0  0  0  0  0  0  0  0  0  0  0  0
   29.8270    7.0810  120.8778 C   0  0  0  0  0  0  0  0  0  0  0  0
   29.3942    4.7341  120.6758 C   0  0  0  0  0  0  0  0  0  0  0  0
   27.9506    6.0949  117.7839 C   0  0  0  0  0  0  0  0  0  0  0  0
   27.4104    4.8067  117.7620 C   0  0  0  0  0  0  0  0  0  0  0  0
  1  2  1  0
  2  3  2  0
  3  4  1  0
  4  5  1  0
  4  6  1  0
  6  7  1  0
  6  8  2  0
  8  9  1  0
  9 10  1  0
 10 11  1  0
 11 12  1  0
 12 13  2  0
 13 14  1  0
 14 15  1  0
 14 16  2  0
 16 17  1  0
 17 18  2  0
 18 19  1  0
 19 20  1  0
 20 21  2  0
 21 22  1  0
 22 23  2  0
 23 24  1  0
 24 25  1  0
 25 26  1  0
 26 27  1  0
 27 28  1  0
 27 29  1  0
 25 30  2  0
 30 31  1  0
  8  2  1  0
 18 12  1  0
 31 19  2  0
 30 22  1  0
M  END
$$$$
