
     RDKit          3D

 31 34  0  0  0  0  0  0  0  0999 V2000
    0.6167   26.0091  100.1390 C   0  0  0  0  0  0  0  0  0  0  0  0
    1.2195   25.4736   98.9039 C   0  0  0  0  0  0  0  0  0  0  0  0
    0.7705   25.7115   97.6600 N   0  0  0  0  0  0  0  0  0  0  0  0
    1.5449   25.0820   96.7856 N   0  0  0  0  0  0  0  0  0  0  0  0
    1.3563   25.1132   95.3267 C   0  0  0  0  0  0  0  0  0  0  0  0
    2.5152   24.4196   97.4340 C   0  0  0  0  0  0  0  0  0  0  0  0
    3.5485   23.6175   96.7388 C   0  0  0  0  0  0  0  0  0  0  0  0
    2.3264   24.6549   98.7762 C   0  0  0  0  0  0  0  0  0  0  0  0
    3.1317   24.1491   99.8502 C   0  0  0  0  0  0  0  0  0  0  0  0
    4.5390   24.5036  100.0464 C   0  0  0  0  0  0  0  0  0  0  0  0
    5.0751   25.6897   99.7284 O   0  0  0  0  0  0  0  0  0  0  0  0
    5.9841   26.5831  100.1447 C   0  0  0  0  0  0  0  0  0  0  0  0
    6.1052   26.9511  101.4684 C   0  0  0  0  0  0  0  0  0  0  0  0
    7.0570   27.8651  101.8308 C   0  0  0  0  0  0  0  0  0  0  0  0
    7.1573   28.2120  103.1289 F   0  0  0  0  0  0  0  0  0  0  0  0
    7.9008   28.4241  100.8847 C   0  0  0  0  0  0  0  0  0  0  0  0
    7.7625   28.0399   99.5609 C   0  0  0  0  0  0  0  0  0  0  0  0
    6.8148   27.1216   99.1535 C   0  0  0  0  0  0  0  0  0  0  0  0
    6.7121   26.7621   97.7378 C   0  0  0  0  0  0  0  0  0  0  0  0
    6.3650   25.4372   97.4404 C   0  0  0  0  0  0  0  0  0  0  0  0
    6.2780   24.9898   96.1396 C   0  0  0  0  0  0  0  0  0  0  0  0
    6.5431   25.8870   95.1274 C   0  0  0  0  0  0  0  0  0  0  0  0
    6.5572   25.7372   93.7841 N   0  0  0  0  0  0  0  0  0  0  0  0
    6.8839   26.8633   93.2047 N   0  0  0  0  0  0  0  0  0  0  0  0
    7.1011   27.8142   94.1406 C   0  0  0  0  0  0  0  0  0  0  0  0
    7.4519   29.2118   93.8847 C   0  0  0  0  0  0  0  0  0  0  0  0
    6.3500   30.0940   93.6288 N   0  0  0  0  0  0  0  0  0  0  0  0
    5.8556   29.9497   92.2597 C   0  0  0  0  0  0  0  0  0  0  0  0
    5.2617   29.9918   94.5794 C   0  0  0  0  0  0  0  0  0  0  0  0
    6.8895   27.2095   95.3610 C   0  0  0  0  0  0  0  0  0  0  0  0
    6.9614   27.6045   96.6992 C   0  0  0  0  0  0  0  0  0  0  0  0
  1  2  1  0
  2  3  2  0
  3  4  1  0
  4  5  1  0
  4  6  1  0
  6  7  1  0
  6  8  2  0
  8  9  1  0
  9 10  1  0
 10 11  1  0
 11 12  1  0
 12 13  2  0
 13 14  1  0
 14 15  1  0
 14 16  2  0
 16 17  1  0
 17 18  2  0
 18 19  1  0
 19 20  1  0
 20 21  2  0
 21 22  1  0
 22 23  2  0
 23 24  1  0
 24 25  1  0
 25 26  1  0
 26 27  1  0
 27 28  1  0
 27 29  1  0
 25 30  2  0
 30 31  1  0
  8  2  1  0
 18 12  1  0
 31 19  2  0
 30 22  1  0
M  END
$$$$
