
     RDKit          3D

 31 34  0  0  0  0  0  0  0  0999 V2000
   20.8003    3.9227  121.1253 C   0  0  0  0  0  0  0  0  0  0  0  0
   21.3848    5.1848  120.6342 C   0  0  0  0  0  0  0  0  0  0  0  0
   21.7294    6.2280  121.4077 N   0  0  0  0  0  0  0  0  0  0  0  0
   22.2269    7.1939  120.6462 N   0  0  0  0  0  0  0  0  0  0  0  0
   22.7097    8.4901  121.1481 C   0  0  0  0  0  0  0  0  0  0  0  0
   22.2194    6.8074  119.3611 C   0  0  0  0  0  0  0  0  0  0  0  0
   22.7149    7.6629  118.2580 C   0  0  0  0  0  0  0  0  0  0  0  0
   21.6899    5.5381  119.3327 C   0  0  0  0  0  0  0  0  0  0  0  0
   21.4930    4.7242  118.1679 C   0  0  0  0  0  0  0  0  0  0  0  0
   22.2195    3.4778  117.9161 C   0  0  0  0  0  0  0  0  0  0  0  0
   23.5040    3.4098  117.5406 O   0  0  0  0  0  0  0  0  0  0  0  0
   24.4607    2.5325  117.2048 C   0  0  0  0  0  0  0  0  0  0  0  0
   24.2122    1.1818  117.0776 C   0  0  0  0  0  0  0  0  0  0  0  0
   25.2308    0.3379  116.7268 C   0  0  0  0  0  0  0  0  0  0  0  0
   24.9670   -0.9782  116.6097 F   0  0  0  0  0  0  0  0  0  0  0  0
   26.5077    0.8240  116.4969 C   0  0  0  0  0  0  0  0  0  0  0  0
   26.7352    2.1840  116.6295 C   0  0  0  0  0  0  0  0  0  0  0  0
   25.7355    3.0692  116.9823 C   0  0  0  0  0  0  0  0  0  0  0  0
   26.0403    4.4951  117.1147 C   0  0  0  0  0  0  0  0  0  0  0  0
   25.1322    5.3967  116.5429 C   0  0  0  0  0  0  0  0  0  0  0  0
   25.3469    6.7576  116.5813 C   0  0  0  0  0  0  0  0  0  0  0  0
   26.4888    7.2154  117.2029 C   0  0  0  0  0  0  0  0  0  0  0  0
   26.9690    8.4669  117.3762 N   0  0  0  0  0  0  0  0  0  0  0  0
   28.1097    8.4316  118.0151 N   0  0  0  0  0  0  0  0  0  0  0  0
   28.4383    7.1508  118.2959 C   0  0  0  0  0  0  0  0  0  0  0  0
   29.6235    6.7057  119.0301 C   0  0  0  0  0  0  0  0  0  0  0  0
   29.3909    6.2469  120.3693 N   0  0  0  0  0  0  0  0  0  0  0  0
   30.6118    5.7106  120.9709 C   0  0  0  0  0  0  0  0  0  0  0  0
   28.7760    7.2243  121.2440 C   0  0  0  0  0  0  0  0  0  0  0  0
   27.4217    6.3714  117.7870 C   0  0  0  0  0  0  0  0  0  0  0  0
   27.1495    5.0029  117.7166 C   0  0  0  0  0  0  0  0  0  0  0  0
  1  2  1  0
  2  3  2  0
  3  4  1  0
  4  5  1  0
  4  6  1  0
  6  7  1  0
  6  8  2  0
  8  9  1  0
  9 10  1  0
 10 11  1  0
 11 12  1  0
 12 13  2  0
 13 14  1  0
 14 15  1  0
 14 16  2  0
 16 17  1  0
 17 18  2  0
 18 19  1  0
 19 20  1  0
 20 21  2  0
 21 22  1  0
 22 23  2  0
 23 24  1  0
 24 25  1  0
 25 26  1  0
 26 27  1  0
 27 28  1  0
 27 29  1  0
 25 30  2  0
 30 31  1  0
  8  2  1  0
 18 12  1  0
 31 19  2  0
 30 22  1  0
M  END
$$$$
