
     RDKit          3D

 31 34  0  0  0  0  0  0  0  0999 V2000
   20.3961    4.0067  120.6681 C   0  0  0  0  0  0  0  0  0  0  0  0
   21.1790    5.2321  120.4207 C   0  0  0  0  0  0  0  0  0  0  0  0
   21.5150    6.1353  121.3570 N   0  0  0  0  0  0  0  0  0  0  0  0
   22.2206    7.1085  120.7953 N   0  0  0  0  0  0  0  0  0  0  0  0
   22.7599    8.2733  121.5146 C   0  0  0  0  0  0  0  0  0  0  0  0
   22.3624    6.8663  119.4830 C   0  0  0  0  0  0  0  0  0  0  0  0
   23.1048    7.7674  118.5715 C   0  0  0  0  0  0  0  0  0  0  0  0
   21.7098    5.6828  119.2262 C   0  0  0  0  0  0  0  0  0  0  0  0
   21.6017    5.0296  117.9536 C   0  0  0  0  0  0  0  0  0  0  0  0
   22.1537    3.7026  117.6726 C   0  0  0  0  0  0  0  0  0  0  0  0
   23.4573    3.4420  117.5049 O   0  0  0  0  0  0  0  0  0  0  0  0
   24.3110    2.4352  117.2696 C   0  0  0  0  0  0  0  0  0  0  0  0
   23.8935    1.1264  117.1479 C   0  0  0  0  0  0  0  0  0  0  0  0
   24.8140    0.1440  116.9023 C   0  0  0  0  0  0  0  0  0  0  0  0
   24.3852   -1.1283  116.7887 F   0  0  0  0  0  0  0  0  0  0  0  0
   26.1595    0.4485  116.7734 C   0  0  0  0  0  0  0  0  0  0  0  0
   26.5571    1.7695  116.8985 C   0  0  0  0  0  0  0  0  0  0  0  0
   25.6606    2.7904  117.1468 C   0  0  0  0  0  0  0  0  0  0  0  0
   26.1435    4.1665  117.2770 C   0  0  0  0  0  0  0  0  0  0  0  0
   25.3472    5.1766  116.7203 C   0  0  0  0  0  0  0  0  0  0  0  0
   25.7312    6.4998  116.7578 C   0  0  0  0  0  0  0  0  0  0  0  0
   26.9304    6.8089  117.3630 C   0  0  0  0  0  0  0  0  0  0  0  0
   27.5660    7.9898  117.5312 N   0  0  0  0  0  0  0  0  0  0  0  0
   28.7025    7.8097  118.1529 N   0  0  0  0  0  0  0  0  0  0  0  0
   28.8722    6.4969  118.4267 C   0  0  0  0  0  0  0  0  0  0  0  0
   30.0029    5.9044  119.1423 C   0  0  0  0  0  0  0  0  0  0  0  0
   29.8967    5.8907  120.5729 N   0  0  0  0  0  0  0  0  0  0  0  0
   30.0581    7.2318  121.1345 C   0  0  0  0  0  0  0  0  0  0  0  0
   28.6946    5.2636  121.0830 C   0  0  0  0  0  0  0  0  0  0  0  0
   27.7587    5.8527  117.9317 C   0  0  0  0  0  0  0  0  0  0  0  0
   27.3163    4.5293  117.8631 C   0  0  0  0  0  0  0  0  0  0  0  0
  1  2  1  0
  2  3  2  0
  3  4  1  0
  4  5  1  0
  4  6  1  0
  6  7  1  0
  6  8  2  0
  8  9  1  0
  9 10  1  0
 10 11  1  0
 11 12  1  0
 12 13  2  0
 13 14  1  0
 14 15  1  0
 14 16  2  0
 16 17  1  0
 17 18  2  0
 18 19  1  0
 19 20  1  0
 20 21  2  0
 21 22  1  0
 22 23  2  0
 23 24  1  0
 24 25  1  0
 25 26  1  0
 26 27  1  0
 27 28  1  0
 27 29  1  0
 25 30  2  0
 30 31  1  0
  8  2  1  0
 18 12  1  0
 31 19  2  0
 30 22  1  0
M  END
$$$$
