
     RDKit          3D

 31 34  0  0  0  0  0  0  0  0999 V2000
   -1.0327  -11.2043   91.6344 C   0  0  0  0  0  0  0  0  0  0  0  0
    0.3945  -11.4762   91.3799 C   0  0  0  0  0  0  0  0  0  0  0  0
    1.0384  -12.6043   91.7239 N   0  0  0  0  0  0  0  0  0  0  0  0
    2.3068  -12.5194   91.3438 N   0  0  0  0  0  0  0  0  0  0  0  0
    3.3155  -13.5697   91.5546 C   0  0  0  0  0  0  0  0  0  0  0  0
    2.5223  -11.3381   90.7445 C   0  0  0  0  0  0  0  0  0  0  0  0
    3.8411  -10.9368   90.2024 C   0  0  0  0  0  0  0  0  0  0  0  0
    1.3237  -10.6632   90.7575 C   0  0  0  0  0  0  0  0  0  0  0  0
    1.0774   -9.3561   90.2202 C   0  0  0  0  0  0  0  0  0  0  0  0
    0.3390   -9.1146   88.9788 C   0  0  0  0  0  0  0  0  0  0  0  0
    0.8451   -9.2806   87.7493 O   0  0  0  0  0  0  0  0  0  0  0  0
    0.4987   -9.2658   86.4541 C   0  0  0  0  0  0  0  0  0  0  0  0
   -0.7876   -8.9944   86.0369 C   0  0  0  0  0  0  0  0  0  0  0  0
   -1.0768   -8.9893   84.6993 C   0  0  0  0  0  0  0  0  0  0  0  0
   -2.3401   -8.7235   84.3133 F   0  0  0  0  0  0  0  0  0  0  0  0
   -0.0932   -9.2521   83.7597 C   0  0  0  0  0  0  0  0  0  0  0  0
    1.1922   -9.5215   84.2003 C   0  0  0  0  0  0  0  0  0  0  0  0
    1.5255   -9.5371   85.5405 C   0  0  0  0  0  0  0  0  0  0  0  0
    2.9006   -9.8369   85.9443 C   0  0  0  0  0  0  0  0  0  0  0  0
    3.4773   -9.0019   86.9111 C   0  0  0  0  0  0  0  0  0  0  0  0
    4.7779   -9.1779   87.3319 C   0  0  0  0  0  0  0  0  0  0  0  0
    5.5056  -10.2064   86.7728 C   0  0  0  0  0  0  0  0  0  0  0  0
    6.7830  -10.6031   86.9671 N   0  0  0  0  0  0  0  0  0  0  0  0
    7.0626  -11.6259   86.2014 N   0  0  0  0  0  0  0  0  0  0  0  0
    5.9794  -11.9552   85.4627 C   0  0  0  0  0  0  0  0  0  0  0  0
    5.8881  -13.0653   84.5135 C   0  0  0  0  0  0  0  0  0  0  0  0
    6.9250  -14.0522   84.6072 N   0  0  0  0  0  0  0  0  0  0  0  0
    8.2492  -13.4556   84.4321 C   0  0  0  0  0  0  0  0  0  0  0  0
    6.8826  -14.8601   85.8089 C   0  0  0  0  0  0  0  0  0  0  0  0
    4.9879  -11.0646   85.8141 C   0  0  0  0  0  0  0  0  0  0  0  0
    3.6647  -10.8370   85.4279 C   0  0  0  0  0  0  0  0  0  0  0  0
  1  2  1  0
  2  3  2  0
  3  4  1  0
  4  5  1  0
  4  6  1  0
  6  7  1  0
  6  8  2  0
  8  9  1  0
  9 10  1  0
 10 11  1  0
 11 12  1  0
 12 13  2  0
 13 14  1  0
 14 15  1  0
 14 16  2  0
 16 17  1  0
 17 18  2  0
 18 19  1  0
 19 20  1  0
 20 21  2  0
 21 22  1  0
 22 23  2  0
 23 24  1  0
 24 25  1  0
 25 26  1  0
 26 27  1  0
 27 28  1  0
 27 29  1  0
 25 30  2  0
 30 31  1  0
  8  2  1  0
 18 12  1  0
 31 19  2  0
 30 22  1  0
M  END
$$$$
