
     RDKit          3D

 31 34  0  0  0  0  0  0  0  0999 V2000
   25.5354    5.6488  119.3903 C   0  0  0  0  0  0  0  0  0  0  0  0
   26.1057    5.8362  118.0429 C   0  0  0  0  0  0  0  0  0  0  0  0
   27.0742    6.7135  117.7301 N   0  0  0  0  0  0  0  0  0  0  0  0
   27.3521    6.6180  116.4362 N   0  0  0  0  0  0  0  0  0  0  0  0
   28.3625    7.4263  115.7356 C   0  0  0  0  0  0  0  0  0  0  0  0
   26.5748    5.6797  115.8737 C   0  0  0  0  0  0  0  0  0  0  0  0
   26.6439    5.3300  114.4359 C   0  0  0  0  0  0  0  0  0  0  0  0
   25.7787    5.1731  116.8746 C   0  0  0  0  0  0  0  0  0  0  0  0
   24.7914    4.1415  116.7365 C   0  0  0  0  0  0  0  0  0  0  0  0
   25.1127    2.7462  116.4290 C   0  0  0  0  0  0  0  0  0  0  0  0
   26.2202    2.1135  116.8393 O   0  0  0  0  0  0  0  0  0  0  0  0
   26.7115    0.8875  117.0707 C   0  0  0  0  0  0  0  0  0  0  0  0
   25.9064   -0.2306  117.1336 C   0  0  0  0  0  0  0  0  0  0  0  0
   26.4695   -1.4557  117.3680 C   0  0  0  0  0  0  0  0  0  0  0  0
   25.6649   -2.5349  117.4274 F   0  0  0  0  0  0  0  0  0  0  0  0
   27.8378   -1.5863  117.5415 C   0  0  0  0  0  0  0  0  0  0  0  0
   28.6280   -0.4505  117.4737 C   0  0  0  0  0  0  0  0  0  0  0  0
   28.0996    0.8039  117.2398 C   0  0  0  0  0  0  0  0  0  0  0  0
   28.9861    1.9680  117.1876 C   0  0  0  0  0  0  0  0  0  0  0  0
   29.7234    2.1552  116.0104 C   0  0  0  0  0  0  0  0  0  0  0  0
   30.6126    3.1996  115.8755 C   0  0  0  0  0  0  0  0  0  0  0  0
   30.7606    4.0652  116.9380 C   0  0  0  0  0  0  0  0  0  0  0  0
   31.5550    5.1461  117.1035 N   0  0  0  0  0  0  0  0  0  0  0  0
   31.3789    5.6616  118.2925 N   0  0  0  0  0  0  0  0  0  0  0  0
   30.4560    4.9440  118.9713 C   0  0  0  0  0  0  0  0  0  0  0  0
   29.9642    5.2278  120.3201 C   0  0  0  0  0  0  0  0  0  0  0  0
   29.2415    6.4574  120.4739 N   0  0  0  0  0  0  0  0  0  0  0  0
   29.3951    7.3188  119.3015 C   0  0  0  0  0  0  0  0  0  0  0  0
   27.8419    6.2968  120.8112 C   0  0  0  0  0  0  0  0  0  0  0  0
   30.0574    3.9309  118.1259 C   0  0  0  0  0  0  0  0  0  0  0  0
   29.1710    2.8538  118.2034 C   0  0  0  0  0  0  0  0  0  0  0  0
  1  2  1  0
  2  3  2  0
  3  4  1  0
  4  5  1  0
  4  6  1  0
  6  7  1  0
  6  8  2  0
  8  9  1  0
  9 10  1  0
 10 11  1  0
 11 12  1  0
 12 13  2  0
 13 14  1  0
 14 15  1  0
 14 16  2  0
 16 17  1  0
 17 18  2  0
 18 19  1  0
 19 20  1  0
 20 21  2  0
 21 22  1  0
 22 23  2  0
 23 24  1  0
 24 25  1  0
 25 26  1  0
 26 27  1  0
 27 28  1  0
 27 29  1  0
 25 30  2  0
 30 31  1  0
  8  2  1  0
 18 12  1  0
 31 19  2  0
 30 22  1  0
M  END
$$$$
