
     RDKit          3D

 31 34  0  0  0  0  0  0  0  0999 V2000
   -0.3788  -12.1857   92.0619 C   0  0  0  0  0  0  0  0  0  0  0  0
    1.0786  -12.3722   92.1917 C   0  0  0  0  0  0  0  0  0  0  0  0
    1.7000  -13.5606   92.2753 N   0  0  0  0  0  0  0  0  0  0  0  0
    3.0084  -13.3658   92.3782 N   0  0  0  0  0  0  0  0  0  0  0  0
    4.0079  -14.4399   92.4905 C   0  0  0  0  0  0  0  0  0  0  0  0
    3.2733  -12.0503   92.3647 C   0  0  0  0  0  0  0  0  0  0  0  0
    4.6462  -11.5024   92.4605 C   0  0  0  0  0  0  0  0  0  0  0  0
    2.0644  -11.4044   92.2473 C   0  0  0  0  0  0  0  0  0  0  0  0
    1.8601   -9.9857   92.1882 C   0  0  0  0  0  0  0  0  0  0  0  0
    1.1714   -9.3099   91.0866 C   0  0  0  0  0  0  0  0  0  0  0  0
    1.5969   -9.3011   89.8161 O   0  0  0  0  0  0  0  0  0  0  0  0
    1.2495   -8.8868   88.5891 C   0  0  0  0  0  0  0  0  0  0  0  0
    0.0522   -8.2506   88.3362 C   0  0  0  0  0  0  0  0  0  0  0  0
   -0.2420   -7.8469   87.0621 C   0  0  0  0  0  0  0  0  0  0  0  0
   -1.4177   -7.2288   86.8364 F   0  0  0  0  0  0  0  0  0  0  0  0
    0.6484   -8.0687   86.0240 C   0  0  0  0  0  0  0  0  0  0  0  0
    1.8455   -8.7088   86.3003 C   0  0  0  0  0  0  0  0  0  0  0  0
    2.1804   -9.1324   87.5714 C   0  0  0  0  0  0  0  0  0  0  0  0
    3.4576   -9.8112   87.7987 C   0  0  0  0  0  0  0  0  0  0  0  0
    4.2673   -9.3167   88.8304 C   0  0  0  0  0  0  0  0  0  0  0  0
    5.5037   -9.8626   89.1006 C   0  0  0  0  0  0  0  0  0  0  0  0
    5.9291  -10.9183   88.3231 C   0  0  0  0  0  0  0  0  0  0  0  0
    7.0779  -11.6302   88.3377 N   0  0  0  0  0  0  0  0  0  0  0  0
    7.0610  -12.5396   87.3978 N   0  0  0  0  0  0  0  0  0  0  0  0
    5.8959  -12.4720   86.7156 C   0  0  0  0  0  0  0  0  0  0  0  0
    5.4895  -13.3460   85.6144 C   0  0  0  0  0  0  0  0  0  0  0  0
    6.5466  -14.0748   84.9746 N   0  0  0  0  0  0  0  0  0  0  0  0
    7.6147  -13.1829   84.5233 C   0  0  0  0  0  0  0  0  0  0  0  0
    7.0882  -15.1658   85.7589 C   0  0  0  0  0  0  0  0  0  0  0  0
    5.1712  -11.4502   87.2905 C   0  0  0  0  0  0  0  0  0  0  0  0
    3.9273  -10.8556   87.0645 C   0  0  0  0  0  0  0  0  0  0  0  0
  1  2  1  0
  2  3  2  0
  3  4  1  0
  4  5  1  0
  4  6  1  0
  6  7  1  0
  6  8  2  0
  8  9  1  0
  9 10  1  0
 10 11  1  0
 11 12  1  0
 12 13  2  0
 13 14  1  0
 14 15  1  0
 14 16  2  0
 16 17  1  0
 17 18  2  0
 18 19  1  0
 19 20  1  0
 20 21  2  0
 21 22  1  0
 22 23  2  0
 23 24  1  0
 24 25  1  0
 25 26  1  0
 26 27  1  0
 27 28  1  0
 27 29  1  0
 25 30  2  0
 30 31  1  0
  8  2  1  0
 18 12  1  0
 31 19  2  0
 30 22  1  0
M  END
$$$$
