
     RDKit          3D

 31 34  0  0  0  0  0  0  0  0999 V2000
   22.6701    3.3229  118.8731 C   0  0  0  0  0  0  0  0  0  0  0  0
   23.8818    3.9460  118.3079 C   0  0  0  0  0  0  0  0  0  0  0  0
   24.5415    4.9827  118.8515 N   0  0  0  0  0  0  0  0  0  0  0  0
   25.5846    5.2872  118.0902 N   0  0  0  0  0  0  0  0  0  0  0  0
   26.5381    6.3719  118.3723 C   0  0  0  0  0  0  0  0  0  0  0  0
   25.6320    4.4604  117.0342 C   0  0  0  0  0  0  0  0  0  0  0  0
   26.6839    4.5387  115.9942 C   0  0  0  0  0  0  0  0  0  0  0  0
   24.5622    3.6039  117.1540 C   0  0  0  0  0  0  0  0  0  0  0  0
   24.2152    2.5446  116.2510 C   0  0  0  0  0  0  0  0  0  0  0  0
   25.0049    1.3214  116.0926 C   0  0  0  0  0  0  0  0  0  0  0  0
   26.1149    1.0385  116.7878 O   0  0  0  0  0  0  0  0  0  0  0  0
   26.8413    0.0077  117.2434 C   0  0  0  0  0  0  0  0  0  0  0  0
   26.3162   -1.2596  117.3861 C   0  0  0  0  0  0  0  0  0  0  0  0
   27.1112   -2.2715  117.8518 C   0  0  0  0  0  0  0  0  0  0  0  0
   26.5779   -3.5017  117.9854 F   0  0  0  0  0  0  0  0  0  0  0  0
   28.4368   -2.0385  118.1804 C   0  0  0  0  0  0  0  0  0  0  0  0
   28.9441   -0.7584  118.0289 C   0  0  0  0  0  0  0  0  0  0  0  0
   28.1757    0.2903  117.5629 C   0  0  0  0  0  0  0  0  0  0  0  0
   28.7672    1.6233  117.4324 C   0  0  0  0  0  0  0  0  0  0  0  0
   29.1062    2.0463  116.1398 C   0  0  0  0  0  0  0  0  0  0  0  0
   29.7015    3.2688  115.9147 C   0  0  0  0  0  0  0  0  0  0  0  0
   29.9580    4.0742  117.0034 C   0  0  0  0  0  0  0  0  0  0  0  0
   30.5382    5.2915  117.0950 N   0  0  0  0  0  0  0  0  0  0  0  0
   30.5927    5.6762  118.3439 N   0  0  0  0  0  0  0  0  0  0  0  0
   30.0485    4.7285  119.1396 C   0  0  0  0  0  0  0  0  0  0  0  0
   29.8944    4.8070  120.5928 C   0  0  0  0  0  0  0  0  0  0  0  0
   28.6597    5.3691  121.0590 N   0  0  0  0  0  0  0  0  0  0  0  0
   28.5869    6.8040  120.7835 C   0  0  0  0  0  0  0  0  0  0  0  0
   27.4705    4.6950  120.5794 C   0  0  0  0  0  0  0  0  0  0  0  0
   29.6437    3.7096  118.3042 C   0  0  0  0  0  0  0  0  0  0  0  0
   29.0419    2.4597  118.4695 C   0  0  0  0  0  0  0  0  0  0  0  0
  1  2  1  0
  2  3  2  0
  3  4  1  0
  4  5  1  0
  4  6  1  0
  6  7  1  0
  6  8  2  0
  8  9  1  0
  9 10  1  0
 10 11  1  0
 11 12  1  0
 12 13  2  0
 13 14  1  0
 14 15  1  0
 14 16  2  0
 16 17  1  0
 17 18  2  0
 18 19  1  0
 19 20  1  0
 20 21  2  0
 21 22  1  0
 22 23  2  0
 23 24  1  0
 24 25  1  0
 25 26  1  0
 26 27  1  0
 27 28  1  0
 27 29  1  0
 25 30  2  0
 30 31  1  0
  8  2  1  0
 18 12  1  0
 31 19  2  0
 30 22  1  0
M  END
$$$$
