
     RDKit          3D

 31 34  0  0  0  0  0  0  0  0999 V2000
    5.1411  -12.7795   89.7370 C   0  0  0  0  0  0  0  0  0  0  0  0
    3.8428  -12.6189   90.4184 C   0  0  0  0  0  0  0  0  0  0  0  0
    2.9847  -13.6168   90.6890 N   0  0  0  0  0  0  0  0  0  0  0  0
    1.9210  -13.1248   91.3110 N   0  0  0  0  0  0  0  0  0  0  0  0
    0.7711  -13.9246   91.7619 C   0  0  0  0  0  0  0  0  0  0  0  0
    2.0571  -11.7982   91.4615 C   0  0  0  0  0  0  0  0  0  0  0  0
    1.0371  -10.9521   92.1233 C   0  0  0  0  0  0  0  0  0  0  0  0
    3.2674  -11.4587   90.9028 C   0  0  0  0  0  0  0  0  0  0  0  0
    3.8349  -10.1428   90.8369 C   0  0  0  0  0  0  0  0  0  0  0  0
    3.2178   -9.0277   90.1154 C   0  0  0  0  0  0  0  0  0  0  0  0
    2.8830   -9.0545   88.8183 O   0  0  0  0  0  0  0  0  0  0  0  0
    1.8850   -8.7432   87.9788 C   0  0  0  0  0  0  0  0  0  0  0  0
    0.7225   -8.1368   88.4066 C   0  0  0  0  0  0  0  0  0  0  0  0
   -0.2576   -7.8395   87.4990 C   0  0  0  0  0  0  0  0  0  0  0  0
   -1.3862   -7.2489   87.9382 F   0  0  0  0  0  0  0  0  0  0  0  0
   -0.0956   -8.1391   86.1560 C   0  0  0  0  0  0  0  0  0  0  0  0
    1.0801   -8.7474   85.7477 C   0  0  0  0  0  0  0  0  0  0  0  0
    2.0931   -9.0646   86.6312 C   0  0  0  0  0  0  0  0  0  0  0  0
    3.3094   -9.7149   86.1398 C   0  0  0  0  0  0  0  0  0  0  0  0
    4.2642   -8.8963   85.5211 C   0  0  0  0  0  0  0  0  0  0  0  0
    5.4259   -9.4168   84.9927 C   0  0  0  0  0  0  0  0  0  0  0  0
    5.6282  -10.7768   85.0889 C   0  0  0  0  0  0  0  0  0  0  0  0
    6.6403  -11.5606   84.6549 N   0  0  0  0  0  0  0  0  0  0  0  0
    6.4047  -12.8125   84.9511 N   0  0  0  0  0  0  0  0  0  0  0  0
    5.2221  -12.9158   85.5978 C   0  0  0  0  0  0  0  0  0  0  0  0
    4.6301  -14.1477   86.1210 C   0  0  0  0  0  0  0  0  0  0  0  0
    5.4926  -15.2939   86.1410 N   0  0  0  0  0  0  0  0  0  0  0  0
    5.9188  -15.6667   84.7921 C   0  0  0  0  0  0  0  0  0  0  0  0
    6.6348  -15.1744   87.0239 C   0  0  0  0  0  0  0  0  0  0  0  0
    4.7203  -11.6354   85.6908 C   0  0  0  0  0  0  0  0  0  0  0  0
    3.5621  -11.0498   86.2079 C   0  0  0  0  0  0  0  0  0  0  0  0
  1  2  1  0
  2  3  2  0
  3  4  1  0
  4  5  1  0
  4  6  1  0
  6  7  1  0
  6  8  2  0
  8  9  1  0
  9 10  1  0
 10 11  1  0
 11 12  1  0
 12 13  2  0
 13 14  1  0
 14 15  1  0
 14 16  2  0
 16 17  1  0
 17 18  2  0
 18 19  1  0
 19 20  1  0
 20 21  2  0
 21 22  1  0
 22 23  2  0
 23 24  1  0
 24 25  1  0
 25 26  1  0
 26 27  1  0
 27 28  1  0
 27 29  1  0
 25 30  2  0
 30 31  1  0
  8  2  1  0
 18 12  1  0
 31 19  2  0
 30 22  1  0
M  END
$$$$
