
     RDKit          3D

 31 34  0  0  0  0  0  0  0  0999 V2000
   20.6099    4.1951  121.6604 C   0  0  0  0  0  0  0  0  0  0  0  0
   21.1844    5.3232  120.9034 C   0  0  0  0  0  0  0  0  0  0  0  0
   21.5320    6.5091  121.4309 N   0  0  0  0  0  0  0  0  0  0  0  0
   22.0182    7.2897  120.4745 N   0  0  0  0  0  0  0  0  0  0  0  0
   22.5004    8.6645  120.6809 C   0  0  0  0  0  0  0  0  0  0  0  0
   22.0002    6.6357  119.3028 C   0  0  0  0  0  0  0  0  0  0  0  0
   22.4817    7.2349  118.0365 C   0  0  0  0  0  0  0  0  0  0  0  0
   21.4758    5.3889  119.5534 C   0  0  0  0  0  0  0  0  0  0  0  0
   21.2712    4.3431  118.5930 C   0  0  0  0  0  0  0  0  0  0  0  0
   22.1645    4.0962  117.4590 C   0  0  0  0  0  0  0  0  0  0  0  0
   23.4468    3.7236  117.5692 O   0  0  0  0  0  0  0  0  0  0  0  0
   24.2847    2.7213  117.2673 C   0  0  0  0  0  0  0  0  0  0  0  0
   23.8480    1.4279  117.0704 C   0  0  0  0  0  0  0  0  0  0  0  0
   24.7530    0.4497  116.7593 C   0  0  0  0  0  0  0  0  0  0  0  0
   24.3056   -0.8075  116.5727 F   0  0  0  0  0  0  0  0  0  0  0  0
   26.1017    0.7430  116.6388 C   0  0  0  0  0  0  0  0  0  0  0  0
   26.5187    2.0486  116.8400 C   0  0  0  0  0  0  0  0  0  0  0  0
   25.6383    3.0648  117.1559 C   0  0  0  0  0  0  0  0  0  0  0  0
   26.1413    4.4238  117.3650 C   0  0  0  0  0  0  0  0  0  0  0  0
   25.2945    5.4798  117.0011 C   0  0  0  0  0  0  0  0  0  0  0  0
   25.6886    6.7947  117.1243 C   0  0  0  0  0  0  0  0  0  0  0  0
   26.9495    7.0489  117.6197 C   0  0  0  0  0  0  0  0  0  0  0  0
   27.6073    8.2108  117.8303 N   0  0  0  0  0  0  0  0  0  0  0  0
   28.8046    7.9762  118.3014 N   0  0  0  0  0  0  0  0  0  0  0  0
   28.9954    6.6437  118.4256 C   0  0  0  0  0  0  0  0  0  0  0  0
   30.1948    5.9895  118.9502 C   0  0  0  0  0  0  0  0  0  0  0  0
   30.2014    5.7406  120.3630 N   0  0  0  0  0  0  0  0  0  0  0  0
   30.1868    6.9884  121.1264 C   0  0  0  0  0  0  0  0  0  0  0  0
   29.1585    4.8467  120.8233 C   0  0  0  0  0  0  0  0  0  0  0  0
   27.8298    6.0457  117.9971 C   0  0  0  0  0  0  0  0  0  0  0  0
   27.3742    4.7333  117.8497 C   0  0  0  0  0  0  0  0  0  0  0  0
  1  2  1  0
  2  3  2  0
  3  4  1  0
  4  5  1  0
  4  6  1  0
  6  7  1  0
  6  8  2  0
  8  9  1  0
  9 10  1  0
 10 11  1  0
 11 12  1  0
 12 13  2  0
 13 14  1  0
 14 15  1  0
 14 16  2  0
 16 17  1  0
 17 18  2  0
 18 19  1  0
 19 20  1  0
 20 21  2  0
 21 22  1  0
 22 23  2  0
 23 24  1  0
 24 25  1  0
 25 26  1  0
 26 27  1  0
 27 28  1  0
 27 29  1  0
 25 30  2  0
 30 31  1  0
  8  2  1  0
 18 12  1  0
 31 19  2  0
 30 22  1  0
M  END
$$$$
