7TBU_S3P_holo_aligned_esmfold_protein
     RDKit          3D

 16 16  0  0  0  0  0  0  0  0999 V2000
   13.1942  101.4698   41.9029 O   0  0  0  0  0  0  0  0  0  0  0  0
   13.4625  101.8176   43.0324 C   0  0  0  0  0  0  0  0  0  0  0  0
   12.5453  102.3627   43.8792 O   0  0  0  0  0  0  0  0  0  0  0  0
   14.7808  101.4484   43.5166 C   0  0  0  0  0  0  0  0  0  0  0  0
   15.2281  101.9784   44.7137 C   0  0  0  0  0  0  0  0  0  0  0  0
   16.2361  101.2732   45.5525 C   0  0  1  0  0  0  0  0  0  0  0  0
   15.3019  100.5166   46.3293 O   0  0  0  0  0  0  0  0  0  0  0  0
   15.5203  100.3434   47.9106 P   0  0  0  0  0  5  0  0  0  0  0  0
   14.3248  100.8945   48.5596 O   0  0  0  0  0  0  0  0  0  0  0  0
   16.8140  101.0176   48.5196 O   0  0  0  0  0  0  0  0  0  0  0  0
   15.5810   98.7754   48.1835 O   0  0  0  0  0  0  0  0  0  0  0  0
   17.1510  100.3591   44.6980 C   0  0  1  0  0  0  0  0  0  0  0  0
   17.9233   99.5297   45.5571 O   0  0  0  0  0  0  0  0  0  0  0  0
   16.2774   99.4706   43.7939 C   0  0  2  0  0  0  0  0  0  0  0  0
   17.0073   98.3814   43.2065 O   0  0  0  0  0  0  0  0  0  0  0  0
   15.5747  100.3685   42.7842 C   0  0  0  0  0  0  0  0  0  0  0  0
  1  2  2  0
  2  3  1  0
  2  4  1  0
  4  5  2  0
  5  6  1  0
  6  7  1  1
  7  8  1  0
  8  9  2  0
  8 10  1  0
  8 11  1  0
  6 12  1  0
 12 13  1  1
 12 14  1  0
 14 15  1  6
 14 16  1  0
 16  4  1  0
M  END
