
     RDKit          3D

 16 16  0  0  0  0  0  0  0  0999 V2000
   23.3898   72.4002    5.7531 O   0  0  0  0  0  0  0  0  0  0  0  0
   24.2305   71.4740    5.6670 C   0  0  0  0  0  0  0  0  0  0  0  0
   24.8250   71.2579    4.4361 O   0  0  0  0  0  0  0  0  0  0  0  0
   24.6167   70.6173    6.7767 C   0  0  0  0  0  0  0  0  0  0  0  0
   25.1280   69.4280    6.5607 C   0  0  0  0  0  0  0  0  0  0  0  0
   25.5515   68.4834    7.6200 C   0  0  1  0  0  0  0  0  0  0  0  0
   26.9320   68.6495    7.7837 O   0  0  0  0  0  0  0  0  0  0  0  0
   27.8105   67.4748    6.9723 P   0  0  0  0  0  5  0  0  0  0  0  0
   27.5185   67.4633    5.4816 O   0  0  0  0  0  0  0  0  0  0  0  0
   27.3802   65.9644    7.6037 O   0  0  0  0  0  0  0  0  0  0  0  0
   29.4807   67.6685    7.2007 O   0  0  0  0  0  0  0  0  0  0  0  0
   24.9092   68.9187    8.9195 C   0  0  1  0  0  0  0  0  0  0  0  0
   25.4373   68.2285   10.0089 O   0  0  0  0  0  0  0  0  0  0  0  0
   25.2971   70.3952    9.0870 C   0  0  2  0  0  0  0  0  0  0  0  0
   25.0871   70.7083   10.4191 O   0  0  0  0  0  0  0  0  0  0  0  0
   24.4000   71.1639    8.1553 C   0  0  0  0  0  0  0  0  0  0  0  0
  1  2  2  0
  2  3  1  0
  2  4  1  0
  4  5  2  0
  5  6  1  0
  6  7  1  1
  7  8  1  0
  8  9  2  0
  8 10  1  0
  8 11  1  0
  6 12  1  0
 12 13  1  1
 12 14  1  0
 14 15  1  1
 14 16  1  0
 16  4  1  0
M  END
$$$$
