
     RDKit          3D

 16 16  0  0  0  0  0  0  0  0999 V2000
   23.4650   72.3970    5.4356 O   0  0  0  0  0  0  0  0  0  0  0  0
   24.2972   71.4610    5.3780 C   0  0  0  0  0  0  0  0  0  0  0  0
   24.9799   71.2804    4.1878 O   0  0  0  0  0  0  0  0  0  0  0  0
   24.5869   70.5582    6.4804 C   0  0  0  0  0  0  0  0  0  0  0  0
   25.1271   69.3823    6.2614 C   0  0  0  0  0  0  0  0  0  0  0  0
   25.4595   68.3941    7.3134 C   0  0  1  0  0  0  0  0  0  0  0  0
   26.8173   68.5600    7.6119 O   0  0  0  0  0  0  0  0  0  0  0  0
   27.7569   67.3174    6.9928 P   0  0  0  0  0  5  0  0  0  0  0  0
   29.2247   67.4700    7.3530 O   0  0  0  0  0  0  0  0  0  0  0  0
   27.6241   67.3463    5.3056 O   0  0  0  0  0  0  0  0  0  0  0  0
   27.2190   65.7980    7.5230 O   0  0  0  0  0  0  0  0  0  0  0  0
   24.6955   68.7682    8.5653 C   0  0  1  0  0  0  0  0  0  0  0  0
   25.1268   68.0333    9.6680 O   0  0  0  0  0  0  0  0  0  0  0  0
   25.0524   70.2378    8.8321 C   0  0  2  0  0  0  0  0  0  0  0  0
   24.7169   70.4907   10.1513 O   0  0  0  0  0  0  0  0  0  0  0  0
   24.2383   71.0422    7.8554 C   0  0  0  0  0  0  0  0  0  0  0  0
  1  2  2  0
  2  3  1  0
  2  4  1  0
  4  5  2  0
  5  6  1  0
  6  7  1  1
  7  8  1  0
  8  9  2  0
  8 10  1  0
  8 11  1  0
  6 12  1  0
 12 13  1  1
 12 14  1  0
 14 15  1  1
 14 16  1  0
 16  4  1  0
M  END
$$$$
