
     RDKit          3D

 16 16  0  0  0  0  0  0  0  0999 V2000
   12.2507  102.0781   42.3042 O   0  0  0  0  0  0  0  0  0  0  0  0
   13.1638  101.3492   41.8492 C   0  0  0  0  0  0  0  0  0  0  0  0
   13.2259  101.1778   40.4774 O   0  0  0  0  0  0  0  0  0  0  0  0
   14.1564  100.6764   42.6716 C   0  0  0  0  0  0  0  0  0  0  0  0
   14.3506  101.0359   43.9189 C   0  0  0  0  0  0  0  0  0  0  0  0
   15.3344  100.4149   44.8355 C   0  0  1  0  0  0  0  0  0  0  0  0
   14.6388   99.4674   45.5961 O   0  0  0  0  0  0  0  0  0  0  0  0
   14.3606   99.9952   47.1626 P   0  0  0  0  0  5  0  0  0  0  0  0
   15.6461  100.3610   47.8847 O   0  0  0  0  0  0  0  0  0  0  0  0
   13.6166   98.7385   48.0182 O   0  0  0  0  0  0  0  0  0  0  0  0
   13.3139  101.3302   47.1999 O   0  0  0  0  0  0  0  0  0  0  0  0
   16.3330   99.6449   43.9985 C   0  0  1  0  0  0  0  0  0  0  0  0
   17.1525   98.8409   44.7887 O   0  0  0  0  0  0  0  0  0  0  0  0
   15.4885   98.7085   43.1220 C   0  0  2  0  0  0  0  0  0  0  0  0
   16.3457   97.7262   42.6562 O   0  0  0  0  0  0  0  0  0  0  0  0
   14.9293   99.5690   42.0216 C   0  0  0  0  0  0  0  0  0  0  0  0
  1  2  2  0
  2  3  1  0
  2  4  1  0
  4  5  2  0
  5  6  1  0
  6  7  1  1
  7  8  1  0
  8  9  2  0
  8 10  1  0
  8 11  1  0
  6 12  1  0
 12 13  1  1
 12 14  1  0
 14 15  1  6
 14 16  1  0
 16  4  1  0
M  END
$$$$
