
     RDKit          3D

 16 16  0  0  0  0  0  0  0  0999 V2000
   12.1858  101.8973   42.3900 O   0  0  0  0  0  0  0  0  0  0  0  0
   13.1306  101.1910   41.9652 C   0  0  0  0  0  0  0  0  0  0  0  0
   13.2271  101.0019   40.5977 O   0  0  0  0  0  0  0  0  0  0  0  0
   14.1260  100.5617   42.8181 C   0  0  0  0  0  0  0  0  0  0  0  0
   14.3094  100.9715   44.0514 C   0  0  0  0  0  0  0  0  0  0  0  0
   15.2949  100.3976   44.9965 C   0  0  1  0  0  0  0  0  0  0  0  0
   14.6056   99.4727   45.7899 O   0  0  0  0  0  0  0  0  0  0  0  0
   14.3257  100.0523   47.3377 P   0  0  0  0  0  5  0  0  0  0  0  0
   13.6980   99.0047   48.2410 O   0  0  0  0  0  0  0  0  0  0  0  0
   13.2556  101.3590   47.2258 O   0  0  0  0  0  0  0  0  0  0  0  0
   15.7506  100.6180   48.0648 O   0  0  0  0  0  0  0  0  0  0  0  0
   16.3065   99.6069   44.1951 C   0  0  1  0  0  0  0  0  0  0  0  0
   17.1303   98.8434   45.0201 O   0  0  0  0  0  0  0  0  0  0  0  0
   15.4770   98.6278   43.3515 C   0  0  2  0  0  0  0  0  0  0  0  0
   16.3475   97.6378   42.9286 O   0  0  0  0  0  0  0  0  0  0  0  0
   14.9145   99.4386   42.2157 C   0  0  0  0  0  0  0  0  0  0  0  0
  1  2  2  0
  2  3  1  0
  2  4  1  0
  4  5  2  0
  5  6  1  0
  6  7  1  1
  7  8  1  0
  8  9  2  0
  8 10  1  0
  8 11  1  0
  6 12  1  0
 12 13  1  1
 12 14  1  0
 14 15  1  6
 14 16  1  0
 16  4  1  0
M  END
$$$$
