
     RDKit          3D

 16 16  0  0  0  0  0  0  0  0999 V2000
   23.3633   72.3209    5.5332 O   0  0  0  0  0  0  0  0  0  0  0  0
   24.2297   71.4156    5.4927 C   0  0  0  0  0  0  0  0  0  0  0  0
   24.8530   71.1763    4.2805 O   0  0  0  0  0  0  0  0  0  0  0  0
   24.6174   70.6058    6.6365 C   0  0  0  0  0  0  0  0  0  0  0  0
   25.2448   69.4650    6.4701 C   0  0  0  0  0  0  0  0  0  0  0  0
   25.6806   68.5706    7.5673 C   0  0  1  0  0  0  0  0  0  0  0  0
   27.0275   68.8604    7.8166 O   0  0  0  0  0  0  0  0  0  0  0  0
   28.0581   67.7827    7.0508 P   0  0  0  0  0  5  0  0  0  0  0  0
   27.9930   67.8990    5.5375 O   0  0  0  0  0  0  0  0  0  0  0  0
   27.5913   66.2128    7.4777 O   0  0  0  0  0  0  0  0  0  0  0  0
   29.6674   67.9913    7.5463 O   0  0  0  0  0  0  0  0  0  0  0  0
   24.9194   68.9575    8.8169 C   0  0  1  0  0  0  0  0  0  0  0  0
   25.4347   68.3259    9.9473 O   0  0  0  0  0  0  0  0  0  0  0  0
   25.1635   70.4639    8.9884 C   0  0  2  0  0  0  0  0  0  0  0  0
   24.8405   70.7679   10.2999 O   0  0  0  0  0  0  0  0  0  0  0  0
   24.2642   71.1420    7.9907 C   0  0  0  0  0  0  0  0  0  0  0  0
  1  2  2  0
  2  3  1  0
  2  4  1  0
  4  5  2  0
  5  6  1  0
  6  7  1  1
  7  8  1  0
  8  9  2  0
  8 10  1  0
  8 11  1  0
  6 12  1  0
 12 13  1  1
 12 14  1  0
 14 15  1  1
 14 16  1  0
 16  4  1  0
M  END
$$$$
