
     RDKit          3D

 16 16  0  0  0  0  0  0  0  0999 V2000
   13.2078  101.1938   40.5336 O   0  0  0  0  0  0  0  0  0  0  0  0
   13.1982  101.2788   41.7845 C   0  0  0  0  0  0  0  0  0  0  0  0
   12.2065  102.0468   42.3689 O   0  0  0  0  0  0  0  0  0  0  0  0
   14.1613  100.6223   42.6539 C   0  0  0  0  0  0  0  0  0  0  0  0
   14.3095  101.0037   43.9010 C   0  0  0  0  0  0  0  0  0  0  0  0
   15.2603  100.4007   44.8634 C   0  0  1  0  0  0  0  0  0  0  0  0
   14.5389   99.4649   45.6145 O   0  0  0  0  0  0  0  0  0  0  0  0
   14.2822   99.9808   47.1887 P   0  0  0  0  0  5  0  0  0  0  0  0
   13.6163   98.9158   48.0431 O   0  0  0  0  0  0  0  0  0  0  0  0
   13.2619  101.3305   47.1415 O   0  0  0  0  0  0  0  0  0  0  0  0
   15.7281  100.4576   47.9380 O   0  0  0  0  0  0  0  0  0  0  0  0
   16.2898   99.6185   44.0767 C   0  0  1  0  0  0  0  0  0  0  0  0
   17.0812   98.8300   44.9099 O   0  0  0  0  0  0  0  0  0  0  0  0
   15.4791   98.6653   43.1864 C   0  0  2  0  0  0  0  0  0  0  0  0
   16.3542   97.6770   42.7692 O   0  0  0  0  0  0  0  0  0  0  0  0
   14.9591   99.5055   42.0518 C   0  0  0  0  0  0  0  0  0  0  0  0
  1  2  2  0
  2  3  1  0
  2  4  1  0
  4  5  2  0
  5  6  1  0
  6  7  1  1
  7  8  1  0
  8  9  2  0
  8 10  1  0
  8 11  1  0
  6 12  1  0
 12 13  1  1
 12 14  1  0
 14 15  1  6
 14 16  1  0
 16  4  1  0
M  END
$$$$
