
     RDKit          3D

 16 16  0  0  0  0  0  0  0  0999 V2000
   23.4230   72.4020    5.4691 O   0  0  0  0  0  0  0  0  0  0  0  0
   24.2900   71.4970    5.4315 C   0  0  0  0  0  0  0  0  0  0  0  0
   24.9463   71.2852    4.2318 O   0  0  0  0  0  0  0  0  0  0  0  0
   24.6458   70.6609    6.5667 C   0  0  0  0  0  0  0  0  0  0  0  0
   25.2451   69.5068    6.3890 C   0  0  0  0  0  0  0  0  0  0  0  0
   25.6472   68.5854    7.4768 C   0  0  1  0  0  0  0  0  0  0  0  0
   26.9987   68.8364    7.7425 O   0  0  0  0  0  0  0  0  0  0  0  0
   28.0016   67.6737    7.0701 P   0  0  0  0  0  5  0  0  0  0  0  0
   27.5940   66.2639    7.4624 O   0  0  0  0  0  0  0  0  0  0  0  0
   29.5741   67.9427    7.6358 O   0  0  0  0  0  0  0  0  0  0  0  0
   28.0412   67.7801    5.3771 O   0  0  0  0  0  0  0  0  0  0  0  0
   24.8844   68.9735    8.7251 C   0  0  1  0  0  0  0  0  0  0  0  0
   25.3725   68.3124    9.8506 O   0  0  0  0  0  0  0  0  0  0  0  0
   25.1657   70.4705    8.9211 C   0  0  2  0  0  0  0  0  0  0  0  0
   24.8384   70.7635   10.2340 O   0  0  0  0  0  0  0  0  0  0  0  0
   24.2938   71.1862    7.9255 C   0  0  0  0  0  0  0  0  0  0  0  0
  1  2  2  0
  2  3  1  0
  2  4  1  0
  4  5  2  0
  5  6  1  0
  6  7  1  1
  7  8  1  0
  8  9  2  0
  8 10  1  0
  8 11  1  0
  6 12  1  0
 12 13  1  1
 12 14  1  0
 14 15  1  1
 14 16  1  0
 16  4  1  0
M  END
$$$$
