
     RDKit          3D

 16 16  0  0  0  0  0  0  0  0999 V2000
   23.2681   72.2279    5.4018 O   0  0  0  0  0  0  0  0  0  0  0  0
   24.2030   71.3928    5.3851 C   0  0  0  0  0  0  0  0  0  0  0  0
   24.8996   71.2315    4.2002 O   0  0  0  0  0  0  0  0  0  0  0  0
   24.5978   70.5875    6.5296 C   0  0  0  0  0  0  0  0  0  0  0  0
   25.2730   69.4738    6.3664 C   0  0  0  0  0  0  0  0  0  0  0  0
   25.7201   68.5862    7.4646 C   0  0  1  0  0  0  0  0  0  0  0  0
   27.0490   68.9259    7.7456 O   0  0  0  0  0  0  0  0  0  0  0  0
   28.1322   67.8092    7.1215 P   0  0  0  0  0  5  0  0  0  0  0  0
   29.5553   68.0633    7.5883 O   0  0  0  0  0  0  0  0  0  0  0  0
   28.1030   67.9325    5.4336 O   0  0  0  0  0  0  0  0  0  0  0  0
   27.6998   66.2192    7.5265 O   0  0  0  0  0  0  0  0  0  0  0  0
   24.9179   68.9306    8.7010 C   0  0  1  0  0  0  0  0  0  0  0  0
   25.4335   68.3084    9.8365 O   0  0  0  0  0  0  0  0  0  0  0  0
   25.0990   70.4436    8.8914 C   0  0  2  0  0  0  0  0  0  0  0  0
   24.7366   70.7217   10.1983 O   0  0  0  0  0  0  0  0  0  0  0  0
   24.1952   71.0960    7.8807 C   0  0  0  0  0  0  0  0  0  0  0  0
  1  2  2  0
  2  3  1  0
  2  4  1  0
  4  5  2  0
  5  6  1  0
  6  7  1  1
  7  8  1  0
  8  9  2  0
  8 10  1  0
  8 11  1  0
  6 12  1  0
 12 13  1  1
 12 14  1  0
 14 15  1  1
 14 16  1  0
 16  4  1  0
M  END
$$$$
