
     RDKit          3D

 16 16  0  0  0  0  0  0  0  0999 V2000
   13.1751  101.5162   40.5705 O   0  0  0  0  0  0  0  0  0  0  0  0
   13.1414  101.5239   41.8238 C   0  0  0  0  0  0  0  0  0  0  0  0
   12.1380  102.2548   42.4354 O   0  0  0  0  0  0  0  0  0  0  0  0
   14.0883  100.8150   42.6695 C   0  0  0  0  0  0  0  0  0  0  0  0
   14.2273  101.1329   43.9353 C   0  0  0  0  0  0  0  0  0  0  0  0
   15.1615  100.4729   44.8763 C   0  0  1  0  0  0  0  0  0  0  0  0
   14.4224   99.5095   45.5732 O   0  0  0  0  0  0  0  0  0  0  0  0
   14.2006   99.9249   47.1820 P   0  0  0  0  0  5  0  0  0  0  0  0
   13.6147   98.7844   47.9965 O   0  0  0  0  0  0  0  0  0  0  0  0
   13.1199  101.2260   47.2464 O   0  0  0  0  0  0  0  0  0  0  0  0
   15.6501  100.4266   47.9077 O   0  0  0  0  0  0  0  0  0  0  0  0
   16.1910   99.7190   44.0624 C   0  0  1  0  0  0  0  0  0  0  0  0
   16.9651   98.8818   44.8636 O   0  0  0  0  0  0  0  0  0  0  0  0
   15.3796   98.8197   43.1182 C   0  0  2  0  0  0  0  0  0  0  0  0
   16.2486   97.8435   42.6616 O   0  0  0  0  0  0  0  0  0  0  0  0
   14.8805   99.7203   42.0211 C   0  0  0  0  0  0  0  0  0  0  0  0
  1  2  2  0
  2  3  1  0
  2  4  1  0
  4  5  2  0
  5  6  1  0
  6  7  1  1
  7  8  1  0
  8  9  2  0
  8 10  1  0
  8 11  1  0
  6 12  1  0
 12 13  1  1
 12 14  1  0
 14 15  1  6
 14 16  1  0
 16  4  1  0
M  END
$$$$
