
     RDKit          3D

 16 16  0  0  0  0  0  0  0  0999 V2000
   13.0978  101.2076   40.5918 O   0  0  0  0  0  0  0  0  0  0  0  0
   13.1238  101.3460   41.8376 C   0  0  0  0  0  0  0  0  0  0  0  0
   12.1187  102.0967   42.4220 O   0  0  0  0  0  0  0  0  0  0  0  0
   14.1410  100.7685   42.7013 C   0  0  0  0  0  0  0  0  0  0  0  0
   14.2910  101.1880   43.9359 C   0  0  0  0  0  0  0  0  0  0  0  0
   15.2947  100.6653   44.8916 C   0  0  1  0  0  0  0  0  0  0  0  0
   14.6449   99.7073   45.6792 O   0  0  0  0  0  0  0  0  0  0  0  0
   14.4169  100.2334   47.2544 P   0  0  0  0  0  5  0  0  0  0  0  0
   13.6838   99.2093   48.1038 O   0  0  0  0  0  0  0  0  0  0  0  0
   13.4827  101.6441   47.2091 O   0  0  0  0  0  0  0  0  0  0  0  0
   15.8877  100.6169   48.0086 O   0  0  0  0  0  0  0  0  0  0  0  0
   16.3529   99.9260   44.1015 C   0  0  1  0  0  0  0  0  0  0  0  0
   17.2059   99.2057   44.9356 O   0  0  0  0  0  0  0  0  0  0  0  0
   15.5825   98.9056   43.2508 C   0  0  2  0  0  0  0  0  0  0  0  0
   16.5061   97.9605   42.8379 O   0  0  0  0  0  0  0  0  0  0  0  0
   14.9914   99.6861   42.1083 C   0  0  0  0  0  0  0  0  0  0  0  0
  1  2  2  0
  2  3  1  0
  2  4  1  0
  4  5  2  0
  5  6  1  0
  6  7  1  1
  7  8  1  0
  8  9  2  0
  8 10  1  0
  8 11  1  0
  6 12  1  0
 12 13  1  1
 12 14  1  0
 14 15  1  6
 14 16  1  0
 16  4  1  0
M  END
$$$$
