
     RDKit          3D

 16 16  0  0  0  0  0  0  0  0999 V2000
   12.1882  102.0365   42.3560 O   0  0  0  0  0  0  0  0  0  0  0  0
   13.1199  101.3339   41.8973 C   0  0  0  0  0  0  0  0  0  0  0  0
   13.2159  101.2121   40.5222 O   0  0  0  0  0  0  0  0  0  0  0  0
   14.1006  100.6428   42.7188 C   0  0  0  0  0  0  0  0  0  0  0  0
   14.2817  100.9792   43.9745 C   0  0  0  0  0  0  0  0  0  0  0  0
   15.2527  100.3383   44.8911 C   0  0  1  0  0  0  0  0  0  0  0  0
   14.5452   99.3798   45.6265 O   0  0  0  0  0  0  0  0  0  0  0  0
   14.1851   99.9107   47.1752 P   0  0  0  0  0  5  0  0  0  0  0  0
   13.1711  101.0418   47.1757 O   0  0  0  0  0  0  0  0  0  0  0  0
   15.6125  100.4843   47.8812 O   0  0  0  0  0  0  0  0  0  0  0  0
   13.6005   98.6520   48.1515 O   0  0  0  0  0  0  0  0  0  0  0  0
   16.2583   99.5798   44.0519 C   0  0  1  0  0  0  0  0  0  0  0  0
   17.0659   98.7588   44.8367 O   0  0  0  0  0  0  0  0  0  0  0  0
   15.4207   98.6624   43.1490 C   0  0  2  0  0  0  0  0  0  0  0  0
   16.2799   97.6856   42.6755 O   0  0  0  0  0  0  0  0  0  0  0  0
   14.8773   99.5445   42.0580 C   0  0  0  0  0  0  0  0  0  0  0  0
  1  2  2  0
  2  3  1  0
  2  4  1  0
  4  5  2  0
  5  6  1  0
  6  7  1  1
  7  8  1  0
  8  9  2  0
  8 10  1  0
  8 11  1  0
  6 12  1  0
 12 13  1  1
 12 14  1  0
 14 15  1  6
 14 16  1  0
 16  4  1  0
M  END
$$$$
