
     RDKit          3D

 16 16  0  0  0  0  0  0  0  0999 V2000
   13.2554  101.1373   40.5997 O   0  0  0  0  0  0  0  0  0  0  0  0
   13.2426  101.1981   41.8519 C   0  0  0  0  0  0  0  0  0  0  0  0
   12.2584  101.9669   42.4480 O   0  0  0  0  0  0  0  0  0  0  0  0
   14.1946  100.5131   42.7115 C   0  0  0  0  0  0  0  0  0  0  0  0
   14.4474  100.9562   43.9208 C   0  0  0  0  0  0  0  0  0  0  0  0
   15.3972  100.3311   44.8701 C   0  0  1  0  0  0  0  0  0  0  0  0
   14.6429   99.5122   45.7189 O   0  0  0  0  0  0  0  0  0  0  0  0
   14.5214  100.1470   47.2656 P   0  0  0  0  0  5  0  0  0  0  0  0
   13.8180   99.2008   48.2236 O   0  0  0  0  0  0  0  0  0  0  0  0
   13.6176  101.5755   47.1798 O   0  0  0  0  0  0  0  0  0  0  0  0
   16.0429  100.5410   47.9052 O   0  0  0  0  0  0  0  0  0  0  0  0
   16.3080   99.4126   44.0844 C   0  0  1  0  0  0  0  0  0  0  0  0
   17.0758   98.6094   44.9257 O   0  0  0  0  0  0  0  0  0  0  0  0
   15.3678   98.4826   43.3037 C   0  0  2  0  0  0  0  0  0  0  0  0
   16.1288   97.3958   42.9080 O   0  0  0  0  0  0  0  0  0  0  0  0
   14.8568   99.2941   42.1442 C   0  0  0  0  0  0  0  0  0  0  0  0
  1  2  2  0
  2  3  1  0
  2  4  1  0
  4  5  2  0
  5  6  1  0
  6  7  1  1
  7  8  1  0
  8  9  2  0
  8 10  1  0
  8 11  1  0
  6 12  1  0
 12 13  1  1
 12 14  1  0
 14 15  1  6
 14 16  1  0
 16  4  1  0
M  END
$$$$
