
     RDKit          3D

 16 16  0  0  0  0  0  0  0  0999 V2000
   13.4073  100.8946   40.5371 O   0  0  0  0  0  0  0  0  0  0  0  0
   13.3636  101.0416   41.7814 C   0  0  0  0  0  0  0  0  0  0  0  0
   12.3738  101.8594   42.2977 O   0  0  0  0  0  0  0  0  0  0  0  0
   14.2855  100.4078   42.7104 C   0  0  0  0  0  0  0  0  0  0  0  0
   14.4154  100.8545   43.9376 C   0  0  0  0  0  0  0  0  0  0  0  0
   15.3243  100.2797   44.9560 C   0  0  1  0  0  0  0  0  0  0  0  0
   14.5574   99.4091   45.7396 O   0  0  0  0  0  0  0  0  0  0  0  0
   14.1739  100.0725   47.2305 P   0  0  0  0  0  5  0  0  0  0  0  0
   13.2217  101.2500   47.1100 O   0  0  0  0  0  0  0  0  0  0  0  0
   15.6050  100.6252   47.9456 O   0  0  0  0  0  0  0  0  0  0  0  0
   13.4910   98.9219   48.2740 O   0  0  0  0  0  0  0  0  0  0  0  0
   16.3482   99.4249   44.2406 C   0  0  1  0  0  0  0  0  0  0  0  0
   17.0953   98.6623   45.1364 O   0  0  0  0  0  0  0  0  0  0  0  0
   15.5304   98.4468   43.3846 C   0  0  2  0  0  0  0  0  0  0  0  0
   16.3849   97.4116   43.0455 O   0  0  0  0  0  0  0  0  0  0  0  0
   15.0631   99.2362   42.1919 C   0  0  0  0  0  0  0  0  0  0  0  0
  1  2  2  0
  2  3  1  0
  2  4  1  0
  4  5  2  0
  5  6  1  0
  6  7  1  1
  7  8  1  0
  8  9  2  0
  8 10  1  0
  8 11  1  0
  6 12  1  0
 12 13  1  1
 12 14  1  0
 14 15  1  6
 14 16  1  0
 16  4  1  0
M  END
$$$$
