
     RDKit          3D

 16 16  0  0  0  0  0  0  0  0999 V2000
   22.4691   64.3795  -13.6696 O   0  0  0  0  0  0  0  0  0  0  0  0
   22.1063   65.1053  -12.7138 C   0  0  0  0  0  0  0  0  0  0  0  0
   22.0691   66.4727  -12.9233 O   0  0  0  0  0  0  0  0  0  0  0  0
   21.7243   64.5998  -11.4051 C   0  0  0  0  0  0  0  0  0  0  0  0
   21.1544   63.4242  -11.2793 C   0  0  0  0  0  0  0  0  0  0  0  0
   20.7294   62.8224   -9.9944 C   0  0  1  0  0  0  0  0  0  0  0  0
   21.7586   61.9647   -9.5877 O   0  0  0  0  0  0  0  0  0  0  0  0
   21.3898   60.3548   -9.8743 P   0  0  0  0  0  5  0  0  0  0  0  0
   19.9362   60.0335   -9.5714 O   0  0  0  0  0  0  0  0  0  0  0  0
   22.3596   59.4038   -8.8642 O   0  0  0  0  0  0  0  0  0  0  0  0
   21.7260   59.9079  -11.4763 O   0  0  0  0  0  0  0  0  0  0  0  0
   20.6570   63.9266   -8.9617 C   0  0  1  0  0  0  0  0  0  0  0  0
   20.4933   63.4156   -7.6754 O   0  0  0  0  0  0  0  0  0  0  0  0
   22.0307   64.6117   -9.0059 C   0  0  2  0  0  0  0  0  0  0  0  0
   22.1483   65.3333   -7.8303 O   0  0  0  0  0  0  0  0  0  0  0  0
   22.0150   65.4849  -10.2311 C   0  0  0  0  0  0  0  0  0  0  0  0
  1  2  2  0
  2  3  1  0
  2  4  1  0
  4  5  2  0
  5  6  1  0
  6  7  1  1
  7  8  1  0
  8  9  2  0
  8 10  1  0
  8 11  1  0
  6 12  1  0
 12 13  1  1
 12 14  1  0
 14 15  1  1
 14 16  1  0
 16  4  1  0
M  END
$$$$
