
     RDKit          3D

 16 16  0  0  0  0  0  0  0  0999 V2000
   13.2120  101.1821   40.6044 O   0  0  0  0  0  0  0  0  0  0  0  0
   13.2203  101.2426   41.8567 C   0  0  0  0  0  0  0  0  0  0  0  0
   12.2635  102.0334   42.4683 O   0  0  0  0  0  0  0  0  0  0  0  0
   14.1697  100.5355   42.7010 C   0  0  0  0  0  0  0  0  0  0  0  0
   14.3584  100.8972   43.9485 C   0  0  0  0  0  0  0  0  0  0  0  0
   15.2997  100.2431   44.8865 C   0  0  1  0  0  0  0  0  0  0  0  0
   14.5520   99.3325   45.6428 O   0  0  0  0  0  0  0  0  0  0  0  0
   14.2183   99.9116   47.1801 P   0  0  0  0  0  5  0  0  0  0  0  0
   13.3263  101.1409   47.1521 O   0  0  0  0  0  0  0  0  0  0  0  0
   15.6832  100.3419   47.9109 O   0  0  0  0  0  0  0  0  0  0  0  0
   13.4885   98.7286   48.1532 O   0  0  0  0  0  0  0  0  0  0  0  0
   16.2784   99.4243   44.0727 C   0  0  1  0  0  0  0  0  0  0  0  0
   17.0498   98.5933   44.8829 O   0  0  0  0  0  0  0  0  0  0  0  0
   15.4094   98.5169   43.1895 C   0  0  2  0  0  0  0  0  0  0  0  0
   16.2318   97.4953   42.7461 O   0  0  0  0  0  0  0  0  0  0  0  0
   14.9056   99.3907   42.0730 C   0  0  0  0  0  0  0  0  0  0  0  0
  1  2  2  0
  2  3  1  0
  2  4  1  0
  4  5  2  0
  5  6  1  0
  6  7  1  1
  7  8  1  0
  8  9  2  0
  8 10  1  0
  8 11  1  0
  6 12  1  0
 12 13  1  1
 12 14  1  0
 14 15  1  6
 14 16  1  0
 16  4  1  0
M  END
$$$$
