
     RDKit          3D

 16 16  0  0  0  0  0  0  0  0999 V2000
   13.8139  102.0410   42.1105 O   0  0  0  0  0  0  0  0  0  0  0  0
   13.8121  100.8057   41.8963 C   0  0  0  0  0  0  0  0  0  0  0  0
   13.1726  100.3521   40.7559 O   0  0  0  0  0  0  0  0  0  0  0  0
   14.4381   99.8256   42.7691 C   0  0  0  0  0  0  0  0  0  0  0  0
   13.9497   98.6120   42.8757 C   0  0  0  0  0  0  0  0  0  0  0  0
   14.5131   97.5451   43.7348 C   0  0  1  0  0  0  0  0  0  0  0  0
   15.3300   96.7548   42.9174 O   0  0  0  0  0  0  0  0  0  0  0  0
   14.6882   95.2258   42.6719 P   0  0  0  0  0  5  0  0  0  0  0  0
   15.7048   94.1261   42.9267 O   0  0  0  0  0  0  0  0  0  0  0  0
   14.1889   95.1163   41.0583 O   0  0  0  0  0  0  0  0  0  0  0  0
   13.3284   94.9501   43.6488 O   0  0  0  0  0  0  0  0  0  0  0  0
   15.4247   98.1961   44.7525 C   0  0  1  0  0  0  0  0  0  0  0  0
   16.1755   97.2500   45.4478 O   0  0  0  0  0  0  0  0  0  0  0  0
   16.4092   99.0411   43.9307 C   0  0  2  0  0  0  0  0  0  0  0  0
   17.4817   99.3150   44.7622 O   0  0  0  0  0  0  0  0  0  0  0  0
   15.6514  100.2760   43.5249 C   0  0  0  0  0  0  0  0  0  0  0  0
  1  2  2  0
  2  3  1  0
  2  4  1  0
  4  5  2  0
  5  6  1  0
  6  7  1  6
  7  8  1  0
  8  9  2  0
  8 10  1  0
  8 11  1  0
  6 12  1  0
 12 13  1  6
 12 14  1  0
 14 15  1  1
 14 16  1  0
 16  4  1  0
M  END
$$$$
