
     RDKit          3D

 16 16  0  0  0  0  0  0  0  0999 V2000
   13.0262  101.3683   40.6115 O   0  0  0  0  0  0  0  0  0  0  0  0
   13.0688  101.4440   41.8622 C   0  0  0  0  0  0  0  0  0  0  0  0
   12.1081  102.2153   42.4925 O   0  0  0  0  0  0  0  0  0  0  0  0
   14.0617  100.7739   42.6865 C   0  0  0  0  0  0  0  0  0  0  0  0
   14.2584  101.1395   43.9316 C   0  0  0  0  0  0  0  0  0  0  0  0
   15.2427  100.5218   44.8499 C   0  0  1  0  0  0  0  0  0  0  0  0
   14.5469   99.5794   45.6166 O   0  0  0  0  0  0  0  0  0  0  0  0
   14.3239  100.0910   47.1972 P   0  0  0  0  0  5  0  0  0  0  0  0
   13.2628  101.1724   47.3090 O   0  0  0  0  0  0  0  0  0  0  0  0
   15.7877  100.7315   47.7556 O   0  0  0  0  0  0  0  0  0  0  0  0
   13.9036   98.8050   48.2213 O   0  0  0  0  0  0  0  0  0  0  0  0
   16.2388   99.7458   44.0154 C   0  0  1  0  0  0  0  0  0  0  0  0
   17.0582   98.9446   44.8084 O   0  0  0  0  0  0  0  0  0  0  0  0
   15.3913   98.8062   43.1451 C   0  0  2  0  0  0  0  0  0  0  0  0
   16.2462   97.8201   42.6831 O   0  0  0  0  0  0  0  0  0  0  0  0
   14.8318   99.6618   42.0412 C   0  0  0  0  0  0  0  0  0  0  0  0
  1  2  2  0
  2  3  1  0
  2  4  1  0
  4  5  2  0
  5  6  1  0
  6  7  1  1
  7  8  1  0
  8  9  2  0
  8 10  1  0
  8 11  1  0
  6 12  1  0
 12 13  1  1
 12 14  1  0
 14 15  1  6
 14 16  1  0
 16  4  1  0
M  END
$$$$
