
     RDKit          3D

 16 16  0  0  0  0  0  0  0  0999 V2000
   23.2692   72.3200    5.5135 O   0  0  0  0  0  0  0  0  0  0  0  0
   24.1623   71.4415    5.4624 C   0  0  0  0  0  0  0  0  0  0  0  0
   24.8392   71.2820    4.2660 O   0  0  0  0  0  0  0  0  0  0  0  0
   24.5281   70.5845    6.5787 C   0  0  0  0  0  0  0  0  0  0  0  0
   25.1492   69.4461    6.3760 C   0  0  0  0  0  0  0  0  0  0  0  0
   25.5631   68.5060    7.4431 C   0  0  1  0  0  0  0  0  0  0  0  0
   26.9085   68.7749    7.7217 O   0  0  0  0  0  0  0  0  0  0  0  0
   27.9364   67.6552    7.0147 P   0  0  0  0  0  5  0  0  0  0  0  0
   28.0044   67.8078    5.5048 O   0  0  0  0  0  0  0  0  0  0  0  0
   27.3472   66.1066    7.3604 O   0  0  0  0  0  0  0  0  0  0  0  0
   29.5082   67.7579    7.6458 O   0  0  0  0  0  0  0  0  0  0  0  0
   24.7876   68.8496    8.6966 C   0  0  1  0  0  0  0  0  0  0  0  0
   25.2826   68.1702    9.8081 O   0  0  0  0  0  0  0  0  0  0  0  0
   25.0406   70.3462    8.9304 C   0  0  2  0  0  0  0  0  0  0  0  0
   24.7020   70.6012   10.2483 O   0  0  0  0  0  0  0  0  0  0  0  0
   24.1603   71.0701    7.9480 C   0  0  0  0  0  0  0  0  0  0  0  0
  1  2  2  0
  2  3  1  0
  2  4  1  0
  4  5  2  0
  5  6  1  0
  6  7  1  1
  7  8  1  0
  8  9  2  0
  8 10  1  0
  8 11  1  0
  6 12  1  0
 12 13  1  1
 12 14  1  0
 14 15  1  1
 14 16  1  0
 16  4  1  0
M  END
$$$$
