
     RDKit          3D

 16 16  0  0  0  0  0  0  0  0999 V2000
   23.4928   72.3924    5.6324 O   0  0  0  0  0  0  0  0  0  0  0  0
   24.3306   71.4624    5.5612 C   0  0  0  0  0  0  0  0  0  0  0  0
   24.9626   71.2582    4.3471 O   0  0  0  0  0  0  0  0  0  0  0  0
   24.6767   70.5898    6.6717 C   0  0  0  0  0  0  0  0  0  0  0  0
   25.2335   69.4204    6.4587 C   0  0  0  0  0  0  0  0  0  0  0  0
   25.6222   68.4622    7.5191 C   0  0  1  0  0  0  0  0  0  0  0  0
   26.9857   68.6618    7.7666 O   0  0  0  0  0  0  0  0  0  0  0  0
   27.9380   67.4876    7.0425 P   0  0  0  0  0  5  0  0  0  0  0  0
   27.9596   67.6153    5.5289 O   0  0  0  0  0  0  0  0  0  0  0  0
   27.2939   65.9717    7.4328 O   0  0  0  0  0  0  0  0  0  0  0  0
   29.5340   67.5294    7.6174 O   0  0  0  0  0  0  0  0  0  0  0  0
   24.8940   68.8479    8.7886 C   0  0  1  0  0  0  0  0  0  0  0  0
   25.3781   68.1459    9.8908 O   0  0  0  0  0  0  0  0  0  0  0  0
   25.2291   70.3298    9.0120 C   0  0  2  0  0  0  0  0  0  0  0  0
   24.9339   70.6045   10.3364 O   0  0  0  0  0  0  0  0  0  0  0  0
   24.3654   71.0963    8.0474 C   0  0  0  0  0  0  0  0  0  0  0  0
  1  2  2  0
  2  3  1  0
  2  4  1  0
  4  5  2  0
  5  6  1  0
  6  7  1  1
  7  8  1  0
  8  9  2  0
  8 10  1  0
  8 11  1  0
  6 12  1  0
 12 13  1  1
 12 14  1  0
 14 15  1  1
 14 16  1  0
 16  4  1  0
M  END
$$$$
