
     RDKit          3D

 16 16  0  0  0  0  0  0  0  0999 V2000
   12.2954  102.0156   42.3431 O   0  0  0  0  0  0  0  0  0  0  0  0
   13.1876  101.2689   41.8760 C   0  0  0  0  0  0  0  0  0  0  0  0
   13.2622  101.1395   40.5002 O   0  0  0  0  0  0  0  0  0  0  0  0
   14.1440  100.5342   42.6883 C   0  0  0  0  0  0  0  0  0  0  0  0
   14.3761  100.8825   43.9323 C   0  0  0  0  0  0  0  0  0  0  0  0
   15.3283  100.2003   44.8389 C   0  0  1  0  0  0  0  0  0  0  0  0
   14.5816   99.3016   45.6101 O   0  0  0  0  0  0  0  0  0  0  0  0
   14.3449   99.8559   47.1743 P   0  0  0  0  0  5  0  0  0  0  0  0
   15.6429  100.2853   47.8364 O   0  0  0  0  0  0  0  0  0  0  0  0
   13.6822   98.5935   48.0865 O   0  0  0  0  0  0  0  0  0  0  0  0
   13.2513  101.1524   47.2234 O   0  0  0  0  0  0  0  0  0  0  0  0
   16.2645   99.3654   43.9921 C   0  0  1  0  0  0  0  0  0  0  0  0
   17.0392   98.5111   44.7746 O   0  0  0  0  0  0  0  0  0  0  0  0
   15.3503   98.4845   43.1281 C   0  0  2  0  0  0  0  0  0  0  0  0
   16.1361   97.4476   42.6547 O   0  0  0  0  0  0  0  0  0  0  0  0
   14.8353   99.3776   42.0322 C   0  0  0  0  0  0  0  0  0  0  0  0
  1  2  2  0
  2  3  1  0
  2  4  1  0
  4  5  2  0
  5  6  1  0
  6  7  1  1
  7  8  1  0
  8  9  2  0
  8 10  1  0
  8 11  1  0
  6 12  1  0
 12 13  1  1
 12 14  1  0
 14 15  1  6
 14 16  1  0
 16  4  1  0
M  END
$$$$
