
     RDKit          3D

 20 22  0  0  0  0  0  0  0  0999 V2000
   22.4774  -11.1782    4.8093 O   0  0  0  0  0  0  0  0  0  0  0  0
   23.4501  -10.4611    4.4615 C   0  0  0  0  0  0  0  0  0  0  0  0
   23.4953   -9.8033    3.2549 C   0  0  0  0  0  0  0  0  0  0  0  0
   22.4094   -9.9050    2.3108 C   0  0  0  0  0  0  0  0  0  0  0  0
   21.1099   -9.9403    2.8070 C   0  0  0  0  0  0  0  0  0  0  0  0
   20.0303  -10.0367    1.9582 C   0  0  0  0  0  0  0  0  0  0  0  0
   20.2738  -10.0974    0.5984 C   0  0  0  0  0  0  0  0  0  0  0  0
   19.1985  -10.1948   -0.2733 O   0  0  0  0  0  0  0  0  0  0  0  0
   21.5658  -10.0620    0.1110 C   0  0  0  0  0  0  0  0  0  0  0  0
   22.6412   -9.9654    0.9676 C   0  0  0  0  0  0  0  0  0  0  0  0
   24.6047   -9.0408    2.9639 C   0  0  0  0  0  0  0  0  0  0  0  0
   25.6041   -8.9321    3.8039 O   0  0  0  0  0  0  0  0  0  0  0  0
   25.6269   -9.5237    4.9556 C   0  0  0  0  0  0  0  0  0  0  0  0
   26.6678   -9.4234    5.8550 C   0  0  0  0  0  0  0  0  0  0  0  0
   26.6229  -10.0815    7.0625 C   0  0  0  0  0  0  0  0  0  0  0  0
   27.6945   -9.9448    7.9249 O   0  0  0  0  0  0  0  0  0  0  0  0
   25.5504  -10.8605    7.4236 C   0  0  0  0  0  0  0  0  0  0  0  0
   24.5056  -10.9666    6.5311 C   0  0  0  0  0  0  0  0  0  0  0  0
   23.3884  -11.7461    6.8464 O   0  0  0  0  0  0  0  0  0  0  0  0
   24.5378  -10.3073    5.3080 C   0  0  0  0  0  0  0  0  0  0  0  0
  1  2  2  0
  2  3  1  0
  3  4  1  0
  4  5  2  0
  5  6  1  0
  6  7  2  0
  7  8  1  0
  7  9  1  0
  9 10  2  0
  3 11  2  0
 11 12  1  0
 12 13  1  0
 13 14  2  0
 14 15  1  0
 15 16  1  0
 15 17  2  0
 17 18  1  0
 18 19  1  0
 18 20  2  0
 20  2  1  0
 10  4  1  0
 20 13  1  0
M  END
$$$$
