
     RDKit          3D

 20 22  0  0  0  0  0  0  0  0999 V2000
   22.4288  -11.1335    4.9858 O   0  0  0  0  0  0  0  0  0  0  0  0
   23.3817  -10.4250    4.5720 C   0  0  0  0  0  0  0  0  0  0  0  0
   23.3647   -9.7959    3.3494 C   0  0  0  0  0  0  0  0  0  0  0  0
   22.2322   -9.9199    2.4645 C   0  0  0  0  0  0  0  0  0  0  0  0
   22.4749  -10.0154    1.0977 C   0  0  0  0  0  0  0  0  0  0  0  0
   21.4372  -10.1358    0.2011 C   0  0  0  0  0  0  0  0  0  0  0  0
   20.1467  -10.1591    0.6972 C   0  0  0  0  0  0  0  0  0  0  0  0
   19.0872  -10.2799   -0.1909 O   0  0  0  0  0  0  0  0  0  0  0  0
   19.9112  -10.0640    2.0550 C   0  0  0  0  0  0  0  0  0  0  0  0
   20.9558   -9.9437    2.9460 C   0  0  0  0  0  0  0  0  0  0  0  0
   24.4570   -9.0407    2.9842 C   0  0  0  0  0  0  0  0  0  0  0  0
   25.4978   -8.9123    3.7695 O   0  0  0  0  0  0  0  0  0  0  0  0
   25.5799   -9.4764    4.9322 C   0  0  0  0  0  0  0  0  0  0  0  0
   26.6651   -9.3548    5.7748 C   0  0  0  0  0  0  0  0  0  0  0  0
   26.6825   -9.9841    6.9983 C   0  0  0  0  0  0  0  0  0  0  0  0
   27.7965   -9.8271    7.8014 O   0  0  0  0  0  0  0  0  0  0  0  0
   25.6306  -10.7542    7.4319 C   0  0  0  0  0  0  0  0  0  0  0  0
   24.5419  -10.8813    6.5965 C   0  0  0  0  0  0  0  0  0  0  0  0
   23.4430  -11.6530    6.9867 O   0  0  0  0  0  0  0  0  0  0  0  0
   24.5110  -10.2512    5.3581 C   0  0  0  0  0  0  0  0  0  0  0  0
  1  2  2  0
  2  3  1  0
  3  4  1  0
  4  5  2  0
  5  6  1  0
  6  7  2  0
  7  8  1  0
  7  9  1  0
  9 10  2  0
  3 11  2  0
 11 12  1  0
 12 13  1  0
 13 14  2  0
 14 15  1  0
 15 16  1  0
 15 17  2  0
 17 18  1  0
 18 19  1  0
 18 20  2  0
 20  2  1  0
 10  4  1  0
 20 13  1  0
M  END
$$$$
