
     RDKit          3D

 20 22  0  0  0  0  0  0  0  0999 V2000
   15.1858   -2.5783   32.3857 O   0  0  0  0  0  0  0  0  0  0  0  0
   15.7555   -3.2660   33.2711 C   0  0  0  0  0  0  0  0  0  0  0  0
   15.0806   -3.8130   34.3370 C   0  0  0  0  0  0  0  0  0  0  0  0
   13.6596   -3.6217   34.4954 C   0  0  0  0  0  0  0  0  0  0  0  0
   12.8726   -3.5719   33.3489 C   0  0  0  0  0  0  0  0  0  0  0  0
   11.5103   -3.3916   33.4326 C   0  0  0  0  0  0  0  0  0  0  0  0
   10.9461   -3.2614   34.6883 C   0  0  0  0  0  0  0  0  0  0  0  0
    9.5745   -3.0789   34.7933 O   0  0  0  0  0  0  0  0  0  0  0  0
   11.7319   -3.3115   35.8233 C   0  0  0  0  0  0  0  0  0  0  0  0
   13.0951   -3.4924   35.7308 C   0  0  0  0  0  0  0  0  0  0  0  0
   15.7926   -4.5516   35.2559 C   0  0  0  0  0  0  0  0  0  0  0  0
   17.0834   -4.7401   35.1349 O   0  0  0  0  0  0  0  0  0  0  0  0
   17.7801   -4.2544   34.1574 C   0  0  0  0  0  0  0  0  0  0  0  0
   19.1389   -4.4401   34.0103 C   0  0  0  0  0  0  0  0  0  0  0  0
   19.8145   -3.8929   32.9439 C   0  0  0  0  0  0  0  0  0  0  0  0
   21.1760   -4.1116   32.8472 O   0  0  0  0  0  0  0  0  0  0  0  0
   19.1732   -3.1443   31.9869 C   0  0  0  0  0  0  0  0  0  0  0  0
   17.8153   -2.9535   32.1257 C   0  0  0  0  0  0  0  0  0  0  0  0
   17.1113   -2.2001   31.1812 O   0  0  0  0  0  0  0  0  0  0  0  0
   17.1204   -3.5005   33.1979 C   0  0  0  0  0  0  0  0  0  0  0  0
  1  2  2  0
  2  3  1  0
  3  4  1  0
  4  5  2  0
  5  6  1  0
  6  7  2  0
  7  8  1  0
  7  9  1  0
  9 10  2  0
  3 11  2  0
 11 12  1  0
 12 13  1  0
 13 14  2  0
 14 15  1  0
 15 16  1  0
 15 17  2  0
 17 18  1  0
 18 19  1  0
 18 20  2  0
 20  2  1  0
 10  4  1  0
 20 13  1  0
M  END
$$$$
