
     RDKit          3D

 20 22  0  0  0  0  0  0  0  0999 V2000
   15.1319   -2.5698   32.2612 O   0  0  0  0  0  0  0  0  0  0  0  0
   15.6689   -3.2578   33.1665 C   0  0  0  0  0  0  0  0  0  0  0  0
   14.9580   -3.7926   34.2151 C   0  0  0  0  0  0  0  0  0  0  0  0
   13.5348   -3.5872   34.3307 C   0  0  0  0  0  0  0  0  0  0  0  0
   12.9941   -3.4435   35.6047 C   0  0  0  0  0  0  0  0  0  0  0  0
   11.6435   -3.2450   35.7823 C   0  0  0  0  0  0  0  0  0  0  0  0
   10.8393   -3.1923   34.6588 C   0  0  0  0  0  0  0  0  0  0  0  0
    9.4751   -2.9928   34.8173 O   0  0  0  0  0  0  0  0  0  0  0  0
   11.3811   -3.3355   33.3962 C   0  0  0  0  0  0  0  0  0  0  0  0
   12.7344   -3.5340   33.2270 C   0  0  0  0  0  0  0  0  0  0  0  0
   15.6358   -4.5327   35.1583 C   0  0  0  0  0  0  0  0  0  0  0  0
   16.9278   -4.7338   35.0762 O   0  0  0  0  0  0  0  0  0  0  0  0
   17.6573   -4.2601   34.1169 C   0  0  0  0  0  0  0  0  0  0  0  0
   19.0180   -4.4592   34.0107 C   0  0  0  0  0  0  0  0  0  0  0  0
   19.7297   -3.9242   32.9617 C   0  0  0  0  0  0  0  0  0  0  0  0
   21.0912   -4.1561   32.9061 O   0  0  0  0  0  0  0  0  0  0  0  0
   19.1237   -3.1751   31.9824 C   0  0  0  0  0  0  0  0  0  0  0  0
   17.7643   -2.9709   32.0803 C   0  0  0  0  0  0  0  0  0  0  0  0
   17.0954   -2.2161   31.1116 O   0  0  0  0  0  0  0  0  0  0  0  0
   17.0331   -3.5054   33.1345 C   0  0  0  0  0  0  0  0  0  0  0  0
  1  2  2  0
  2  3  1  0
  3  4  1  0
  4  5  2  0
  5  6  1  0
  6  7  2  0
  7  8  1  0
  7  9  1  0
  9 10  2  0
  3 11  2  0
 11 12  1  0
 12 13  1  0
 13 14  2  0
 14 15  1  0
 15 16  1  0
 15 17  2  0
 17 18  1  0
 18 19  1  0
 18 20  2  0
 20  2  1  0
 10  4  1  0
 20 13  1  0
M  END
$$$$
