
     RDKit          3D

 20 22  0  0  0  0  0  0  0  0999 V2000
   22.4004  -10.9899    5.1703 O   0  0  0  0  0  0  0  0  0  0  0  0
   23.4003  -10.3948    4.6936 C   0  0  0  0  0  0  0  0  0  0  0  0
   23.4292   -9.8980    3.4117 C   0  0  0  0  0  0  0  0  0  0  0  0
   22.2930  -10.0376    2.5340 C   0  0  0  0  0  0  0  0  0  0  0  0
   22.5292  -10.1428    1.1667 C   0  0  0  0  0  0  0  0  0  0  0  0
   21.4877  -10.2781    0.2767 C   0  0  0  0  0  0  0  0  0  0  0  0
   20.2001  -10.3065    0.7798 C   0  0  0  0  0  0  0  0  0  0  0  0
   19.1368  -10.4423   -0.1017 O   0  0  0  0  0  0  0  0  0  0  0  0
   19.9710  -10.2017    2.1380 C   0  0  0  0  0  0  0  0  0  0  0  0
   21.0193  -10.0665    3.0224 C   0  0  0  0  0  0  0  0  0  0  0  0
   24.5713   -9.2609    2.9799 C   0  0  0  0  0  0  0  0  0  0  0  0
   25.6165   -9.1212    3.7573 O   0  0  0  0  0  0  0  0  0  0  0  0
   25.6572   -9.5642    4.9734 C   0  0  0  0  0  0  0  0  0  0  0  0
   26.7462   -9.4284    5.8089 C   0  0  0  0  0  0  0  0  0  0  0  0
   26.7177   -9.9253    7.0917 C   0  0  0  0  0  0  0  0  0  0  0  0
   27.8379   -9.7603    7.8846 O   0  0  0  0  0  0  0  0  0  0  0  0
   25.6147  -10.5727    7.5936 C   0  0  0  0  0  0  0  0  0  0  0  0
   24.5219  -10.7130    6.7657 C   0  0  0  0  0  0  0  0  0  0  0  0
   23.3720  -11.3634    7.2241 O   0  0  0  0  0  0  0  0  0  0  0  0
   24.5370  -10.2160    5.4679 C   0  0  0  0  0  0  0  0  0  0  0  0
  1  2  2  0
  2  3  1  0
  3  4  1  0
  4  5  2  0
  5  6  1  0
  6  7  2  0
  7  8  1  0
  7  9  1  0
  9 10  2  0
  3 11  2  0
 11 12  1  0
 12 13  1  0
 13 14  2  0
 14 15  1  0
 15 16  1  0
 15 17  2  0
 17 18  1  0
 18 19  1  0
 18 20  2  0
 20  2  1  0
 10  4  1  0
 20 13  1  0
M  END
$$$$
