
     RDKit          3D

 20 22  0  0  0  0  0  0  0  0999 V2000
   15.1332   -2.5778   32.2254 O   0  0  0  0  0  0  0  0  0  0  0  0
   15.7330   -3.2230   33.1228 C   0  0  0  0  0  0  0  0  0  0  0  0
   15.0870   -3.7578   34.2125 C   0  0  0  0  0  0  0  0  0  0  0  0
   13.6630   -3.6025   34.3835 C   0  0  0  0  0  0  0  0  0  0  0  0
   13.1677   -3.4746   35.6775 C   0  0  0  0  0  0  0  0  0  0  0  0
   11.8189   -3.3234   35.9076 C   0  0  0  0  0  0  0  0  0  0  0  0
   10.9700   -3.3021   34.8163 C   0  0  0  0  0  0  0  0  0  0  0  0
    9.6069   -3.1505   35.0278 O   0  0  0  0  0  0  0  0  0  0  0  0
   11.4669   -3.4295   33.5337 C   0  0  0  0  0  0  0  0  0  0  0  0
   12.8187   -3.5805   33.3119 C   0  0  0  0  0  0  0  0  0  0  0  0
   15.8309   -4.4489   35.1429 C   0  0  0  0  0  0  0  0  0  0  0  0
   17.1251   -4.6040   35.0109 O   0  0  0  0  0  0  0  0  0  0  0  0
   17.7957   -4.1273   34.0110 C   0  0  0  0  0  0  0  0  0  0  0  0
   19.1575   -4.2784   33.8519 C   0  0  0  0  0  0  0  0  0  0  0  0
   19.8042   -3.7433   32.7617 C   0  0  0  0  0  0  0  0  0  0  0  0
   21.1701   -3.9259   32.6540 O   0  0  0  0  0  0  0  0  0  0  0  0
   19.1302   -3.0414   31.7919 C   0  0  0  0  0  0  0  0  0  0  0  0
   17.7692   -2.8854   31.9426 C   0  0  0  0  0  0  0  0  0  0  0  0
   17.0325   -2.1800   30.9860 O   0  0  0  0  0  0  0  0  0  0  0  0
   17.1031   -3.4205   33.0388 C   0  0  0  0  0  0  0  0  0  0  0  0
  1  2  2  0
  2  3  1  0
  3  4  1  0
  4  5  2  0
  5  6  1  0
  6  7  2  0
  7  8  1  0
  7  9  1  0
  9 10  2  0
  3 11  2  0
 11 12  1  0
 12 13  1  0
 13 14  2  0
 14 15  1  0
 15 16  1  0
 15 17  2  0
 17 18  1  0
 18 19  1  0
 18 20  2  0
 20  2  1  0
 10  4  1  0
 20 13  1  0
M  END
$$$$
