
     RDKit          3D

 20 22  0  0  0  0  0  0  0  0999 V2000
   22.4638  -11.1491    5.0669 O   0  0  0  0  0  0  0  0  0  0  0  0
   23.4409  -10.4695    4.6611 C   0  0  0  0  0  0  0  0  0  0  0  0
   23.4653   -9.8658    3.4259 C   0  0  0  0  0  0  0  0  0  0  0  0
   22.3508   -9.9843    2.5176 C   0  0  0  0  0  0  0  0  0  0  0  0
   22.6140   -9.9747    1.1513 C   0  0  0  0  0  0  0  0  0  0  0  0
   21.5942  -10.0842    0.2331 C   0  0  0  0  0  0  0  0  0  0  0  0
   20.3008  -10.2041    0.7069 C   0  0  0  0  0  0  0  0  0  0  0  0
   19.2591  -10.3156   -0.2033 O   0  0  0  0  0  0  0  0  0  0  0  0
   20.0448  -10.2132    2.0643 C   0  0  0  0  0  0  0  0  0  0  0  0
   21.0716  -10.1030    2.9771 C   0  0  0  0  0  0  0  0  0  0  0  0
   24.5816   -9.1414    3.0709 C   0  0  0  0  0  0  0  0  0  0  0  0
   25.6067   -9.0185    3.8774 O   0  0  0  0  0  0  0  0  0  0  0  0
   25.6502   -9.5599    5.0529 C   0  0  0  0  0  0  0  0  0  0  0  0
   26.7183   -9.4437    5.9178 C   0  0  0  0  0  0  0  0  0  0  0  0
   26.6942  -10.0477    7.1539 C   0  0  0  0  0  0  0  0  0  0  0  0
   27.7927   -9.8975    7.9793 O   0  0  0  0  0  0  0  0  0  0  0  0
   25.6165  -10.7863    7.5785 C   0  0  0  0  0  0  0  0  0  0  0  0
   24.5446  -10.9079    6.7208 C   0  0  0  0  0  0  0  0  0  0  0  0
   23.4208  -11.6481    7.1010 O   0  0  0  0  0  0  0  0  0  0  0  0
   24.5554  -10.3032    5.4695 C   0  0  0  0  0  0  0  0  0  0  0  0
  1  2  2  0
  2  3  1  0
  3  4  1  0
  4  5  2  0
  5  6  1  0
  6  7  2  0
  7  8  1  0
  7  9  1  0
  9 10  2  0
  3 11  2  0
 11 12  1  0
 12 13  1  0
 13 14  2  0
 14 15  1  0
 15 16  1  0
 15 17  2  0
 17 18  1  0
 18 19  1  0
 18 20  2  0
 20  2  1  0
 10  4  1  0
 20 13  1  0
M  END
$$$$
