
     RDKit          3D

 20 22  0  0  0  0  0  0  0  0999 V2000
   24.6252   -8.8993    2.7409 O   0  0  0  0  0  0  0  0  0  0  0  0
   24.2490   -9.5920    3.7207 C   0  0  0  0  0  0  0  0  0  0  0  0
   23.0456  -10.2570    3.7434 C   0  0  0  0  0  0  0  0  0  0  0  0
   22.1384  -10.1918    2.6237 C   0  0  0  0  0  0  0  0  0  0  0  0
   20.7731  -10.1428    2.8876 C   0  0  0  0  0  0  0  0  0  0  0  0
   19.8557  -10.0796    1.8631 C   0  0  0  0  0  0  0  0  0  0  0  0
   20.3295  -10.0662    0.5641 C   0  0  0  0  0  0  0  0  0  0  0  0
   19.4203  -10.0028   -0.4824 O   0  0  0  0  0  0  0  0  0  0  0  0
   21.6859  -10.1150    0.3075 C   0  0  0  0  0  0  0  0  0  0  0  0
   22.5978  -10.1782    1.3390 C   0  0  0  0  0  0  0  0  0  0  0  0
   22.7219  -10.9908    4.8629 C   0  0  0  0  0  0  0  0  0  0  0  0
   23.5282  -11.0660    5.8928 O   0  0  0  0  0  0  0  0  0  0  0  0
   24.6747  -10.4658    5.9382 C   0  0  0  0  0  0  0  0  0  0  0  0
   25.5388  -10.5311    7.0112 C   0  0  0  0  0  0  0  0  0  0  0  0
   26.7430   -9.8658    6.9889 C   0  0  0  0  0  0  0  0  0  0  0  0
   27.5693   -9.9669    8.0924 O   0  0  0  0  0  0  0  0  0  0  0  0
   27.1355   -9.1140    5.9081 C   0  0  0  0  0  0  0  0  0  0  0  0
   26.2784   -9.0430    4.8312 C   0  0  0  0  0  0  0  0  0  0  0  0
   26.6266   -8.2921    3.7042 O   0  0  0  0  0  0  0  0  0  0  0  0
   25.0590   -9.7099    4.8403 C   0  0  0  0  0  0  0  0  0  0  0  0
  1  2  2  0
  2  3  1  0
  3  4  1  0
  4  5  2  0
  5  6  1  0
  6  7  2  0
  7  8  1  0
  7  9  1  0
  9 10  2  0
  3 11  2  0
 11 12  1  0
 12 13  1  0
 13 14  2  0
 14 15  1  0
 15 16  1  0
 15 17  2  0
 17 18  1  0
 18 19  1  0
 18 20  2  0
 20  2  1  0
 10  4  1  0
 20 13  1  0
M  END
$$$$
