
     RDKit          3D

 20 22  0  0  0  0  0  0  0  0999 V2000
   15.1432   -2.5332   32.2549 O   0  0  0  0  0  0  0  0  0  0  0  0
   15.7369   -3.1837   33.1525 C   0  0  0  0  0  0  0  0  0  0  0  0
   15.0778   -3.7615   34.2120 C   0  0  0  0  0  0  0  0  0  0  0  0
   13.6463   -3.6479   34.3490 C   0  0  0  0  0  0  0  0  0  0  0  0
   13.1209   -3.4772   35.6261 C   0  0  0  0  0  0  0  0  0  0  0  0
   11.7634   -3.3624   35.8237 C   0  0  0  0  0  0  0  0  0  0  0  0
   10.9365   -3.4215   34.7171 C   0  0  0  0  0  0  0  0  0  0  0  0
    9.5650   -3.3078   34.8959 O   0  0  0  0  0  0  0  0  0  0  0  0
   11.4631   -3.5911   33.4513 C   0  0  0  0  0  0  0  0  0  0  0  0
   12.8235   -3.7053   33.2621 C   0  0  0  0  0  0  0  0  0  0  0  0
   15.8160   -4.4548   35.1454 C   0  0  0  0  0  0  0  0  0  0  0  0
   17.1169   -4.5724   35.0439 O   0  0  0  0  0  0  0  0  0  0  0  0
   17.7999   -4.0543   34.0734 C   0  0  0  0  0  0  0  0  0  0  0  0
   19.1688   -4.1656   33.9468 C   0  0  0  0  0  0  0  0  0  0  0  0
   19.8287   -3.5875   32.8867 C   0  0  0  0  0  0  0  0  0  0  0  0
   21.2013   -3.7314   32.8108 O   0  0  0  0  0  0  0  0  0  0  0  0
   19.1611   -2.8806   31.9162 C   0  0  0  0  0  0  0  0  0  0  0  0
   17.7929   -2.7642   32.0345 C   0  0  0  0  0  0  0  0  0  0  0  0
   17.0623   -2.0557   31.0756 O   0  0  0  0  0  0  0  0  0  0  0  0
   17.1136   -3.3429   33.1000 C   0  0  0  0  0  0  0  0  0  0  0  0
  1  2  2  0
  2  3  1  0
  3  4  1  0
  4  5  2  0
  5  6  1  0
  6  7  2  0
  7  8  1  0
  7  9  1  0
  9 10  2  0
  3 11  2  0
 11 12  1  0
 12 13  1  0
 13 14  2  0
 14 15  1  0
 15 16  1  0
 15 17  2  0
 17 18  1  0
 18 19  1  0
 18 20  2  0
 20  2  1  0
 10  4  1  0
 20 13  1  0
M  END
$$$$
