
     RDKit          3D

 20 22  0  0  0  0  0  0  0  0999 V2000
   15.0670   -2.7376   32.3786 O   0  0  0  0  0  0  0  0  0  0  0  0
   15.6810   -3.3685   33.2766 C   0  0  0  0  0  0  0  0  0  0  0  0
   15.0463   -3.9207   34.3643 C   0  0  0  0  0  0  0  0  0  0  0  0
   13.6185   -3.8015   34.5323 C   0  0  0  0  0  0  0  0  0  0  0  0
   12.8275   -3.7269   33.3899 C   0  0  0  0  0  0  0  0  0  0  0  0
   11.4588   -3.6123   33.4828 C   0  0  0  0  0  0  0  0  0  0  0  0
   10.8922   -3.5733   34.7434 C   0  0  0  0  0  0  0  0  0  0  0  0
    9.5140   -3.4579   34.8577 O   0  0  0  0  0  0  0  0  0  0  0  0
   11.6819   -3.6477   35.8743 C   0  0  0  0  0  0  0  0  0  0  0  0
   13.0516   -3.7624   35.7727 C   0  0  0  0  0  0  0  0  0  0  0  0
   15.8054   -4.5938   35.2957 C   0  0  0  0  0  0  0  0  0  0  0  0
   17.1034   -4.7160   35.1663 O   0  0  0  0  0  0  0  0  0  0  0  0
   17.7640   -4.2214   34.1684 C   0  0  0  0  0  0  0  0  0  0  0  0
   19.1294   -4.3380   34.0122 C   0  0  0  0  0  0  0  0  0  0  0  0
   19.7648   -3.7855   32.9240 C   0  0  0  0  0  0  0  0  0  0  0  0
   21.1351   -3.9335   32.8190 O   0  0  0  0  0  0  0  0  0  0  0  0
   19.0754   -3.0998   31.9534 C   0  0  0  0  0  0  0  0  0  0  0  0
   17.7105   -2.9783   32.1013 C   0  0  0  0  0  0  0  0  0  0  0  0
   16.9584   -2.2907   31.1437 O   0  0  0  0  0  0  0  0  0  0  0  0
   17.0558   -3.5313   33.1954 C   0  0  0  0  0  0  0  0  0  0  0  0
  1  2  2  0
  2  3  1  0
  3  4  1  0
  4  5  2  0
  5  6  1  0
  6  7  2  0
  7  8  1  0
  7  9  1  0
  9 10  2  0
  3 11  2  0
 11 12  1  0
 12 13  1  0
 13 14  2  0
 14 15  1  0
 15 16  1  0
 15 17  2  0
 17 18  1  0
 18 19  1  0
 18 20  2  0
 20  2  1  0
 10  4  1  0
 20 13  1  0
M  END
$$$$
