
     RDKit          3D

 20 22  0  0  0  0  0  0  0  0999 V2000
   15.1526   -2.5150   32.4358 O   0  0  0  0  0  0  0  0  0  0  0  0
   15.7474   -3.1973   33.3087 C   0  0  0  0  0  0  0  0  0  0  0  0
   15.0982   -3.7621   34.3813 C   0  0  0  0  0  0  0  0  0  0  0  0
   13.6765   -3.5968   34.5616 C   0  0  0  0  0  0  0  0  0  0  0  0
   12.8733   -3.5417   33.4268 C   0  0  0  0  0  0  0  0  0  0  0  0
   11.5096   -3.3853   33.5315 C   0  0  0  0  0  0  0  0  0  0  0  0
   10.9604   -3.2846   34.7965 C   0  0  0  0  0  0  0  0  0  0  0  0
    9.5875   -3.1266   34.9227 O   0  0  0  0  0  0  0  0  0  0  0  0
   11.7623   -3.3400   35.9200 C   0  0  0  0  0  0  0  0  0  0  0  0
   13.1269   -3.4967   35.8064 C   0  0  0  0  0  0  0  0  0  0  0  0
   15.8367   -4.4929   35.2853 C   0  0  0  0  0  0  0  0  0  0  0  0
   17.1287   -4.6578   35.1443 O   0  0  0  0  0  0  0  0  0  0  0  0
   17.8021   -4.1545   34.1593 C   0  0  0  0  0  0  0  0  0  0  0  0
   19.1616   -4.3152   33.9912 C   0  0  0  0  0  0  0  0  0  0  0  0
   19.8116   -3.7502   32.9181 C   0  0  0  0  0  0  0  0  0  0  0  0
   21.1751   -3.9442   32.8002 O   0  0  0  0  0  0  0  0  0  0  0  0
   19.1430   -3.0080   31.9750 C   0  0  0  0  0  0  0  0  0  0  0  0
   17.7842   -2.8420   32.1349 C   0  0  0  0  0  0  0  0  0  0  0  0
   17.0531   -2.0961   31.2052 O   0  0  0  0  0  0  0  0  0  0  0  0
   17.1150   -3.4071   33.2140 C   0  0  0  0  0  0  0  0  0  0  0  0
  1  2  2  0
  2  3  1  0
  3  4  1  0
  4  5  2  0
  5  6  1  0
  6  7  2  0
  7  8  1  0
  7  9  1  0
  9 10  2  0
  3 11  2  0
 11 12  1  0
 12 13  1  0
 13 14  2  0
 14 15  1  0
 15 16  1  0
 15 17  2  0
 17 18  1  0
 18 19  1  0
 18 20  2  0
 20  2  1  0
 10  4  1  0
 20 13  1  0
M  END
$$$$
