
     RDKit          3D

 20 22  0  0  0  0  0  0  0  0999 V2000
   15.2006   -2.4962   32.5028 O   0  0  0  0  0  0  0  0  0  0  0  0
   15.7685   -3.2047   33.3727 C   0  0  0  0  0  0  0  0  0  0  0  0
   15.0916   -3.7771   34.4239 C   0  0  0  0  0  0  0  0  0  0  0  0
   13.6702   -3.5897   34.5839 C   0  0  0  0  0  0  0  0  0  0  0  0
   12.8817   -3.5421   33.4383 C   0  0  0  0  0  0  0  0  0  0  0  0
   11.5191   -3.3655   33.5236 C   0  0  0  0  0  0  0  0  0  0  0  0
   10.9560   -3.2368   34.7799 C   0  0  0  0  0  0  0  0  0  0  0  0
    9.5840   -3.0581   34.8864 O   0  0  0  0  0  0  0  0  0  0  0  0
   11.7433   -3.2848   35.9140 C   0  0  0  0  0  0  0  0  0  0  0  0
   13.1068   -3.4619   35.8200 C   0  0  0  0  0  0  0  0  0  0  0  0
   15.8018   -4.5374   35.3263 C   0  0  0  0  0  0  0  0  0  0  0  0
   17.0929   -4.7228   35.2035 O   0  0  0  0  0  0  0  0  0  0  0  0
   17.7915   -4.2140   34.2392 C   0  0  0  0  0  0  0  0  0  0  0  0
   19.1506   -4.3960   34.0905 C   0  0  0  0  0  0  0  0  0  0  0  0
   19.8283   -3.8235   33.0388 C   0  0  0  0  0  0  0  0  0  0  0  0
   21.1899   -4.0397   32.9398 O   0  0  0  0  0  0  0  0  0  0  0  0
   19.1888   -3.0523   32.0987 C   0  0  0  0  0  0  0  0  0  0  0  0
   17.8307   -2.8649   32.2392 C   0  0  0  0  0  0  0  0  0  0  0  0
   17.1286   -2.0892   31.3115 O   0  0  0  0  0  0  0  0  0  0  0  0
   17.1336   -3.4374   33.2966 C   0  0  0  0  0  0  0  0  0  0  0  0
  1  2  2  0
  2  3  1  0
  3  4  1  0
  4  5  2  0
  5  6  1  0
  6  7  2  0
  7  8  1  0
  7  9  1  0
  9 10  2  0
  3 11  2  0
 11 12  1  0
 12 13  1  0
 13 14  2  0
 14 15  1  0
 15 16  1  0
 15 17  2  0
 17 18  1  0
 18 19  1  0
 18 20  2  0
 20  2  1  0
 10  4  1  0
 20 13  1  0
M  END
$$$$
