
     RDKit          3D

 20 22  0  0  0  0  0  0  0  0999 V2000
   15.1147   -2.5375   32.3303 O   0  0  0  0  0  0  0  0  0  0  0  0
   15.7000   -3.2114   33.2161 C   0  0  0  0  0  0  0  0  0  0  0  0
   15.0432   -3.7462   34.2994 C   0  0  0  0  0  0  0  0  0  0  0  0
   13.6241   -3.5573   34.4767 C   0  0  0  0  0  0  0  0  0  0  0  0
   12.8147   -3.5663   33.3449 C   0  0  0  0  0  0  0  0  0  0  0  0
   11.4530   -3.3915   33.4470 C   0  0  0  0  0  0  0  0  0  0  0  0
   10.9122   -3.2068   34.7061 C   0  0  0  0  0  0  0  0  0  0  0  0
    9.5415   -3.0288   34.8296 O   0  0  0  0  0  0  0  0  0  0  0  0
   11.7203   -3.1988   35.8265 C   0  0  0  0  0  0  0  0  0  0  0  0
   13.0827   -3.3745   35.7156 C   0  0  0  0  0  0  0  0  0  0  0  0
   15.7716   -4.4701   35.2171 C   0  0  0  0  0  0  0  0  0  0  0  0
   17.0610   -4.6560   35.0791 O   0  0  0  0  0  0  0  0  0  0  0  0
   17.7412   -4.1813   34.0847 C   0  0  0  0  0  0  0  0  0  0  0  0
   19.0982   -4.3646   33.9195 C   0  0  0  0  0  0  0  0  0  0  0  0
   19.7558   -3.8296   32.8357 C   0  0  0  0  0  0  0  0  0  0  0  0
   21.1163   -4.0452   32.7214 O   0  0  0  0  0  0  0  0  0  0  0  0
   19.0975   -3.0960   31.8786 C   0  0  0  0  0  0  0  0  0  0  0  0
   17.7413   -2.9077   32.0355 C   0  0  0  0  0  0  0  0  0  0  0  0
   17.0205   -2.1693   31.0918 O   0  0  0  0  0  0  0  0  0  0  0  0
   17.0645   -3.4425   33.1253 C   0  0  0  0  0  0  0  0  0  0  0  0
  1  2  2  0
  2  3  1  0
  3  4  1  0
  4  5  2  0
  5  6  1  0
  6  7  2  0
  7  8  1  0
  7  9  1  0
  9 10  2  0
  3 11  2  0
 11 12  1  0
 12 13  1  0
 13 14  2  0
 14 15  1  0
 15 16  1  0
 15 17  2  0
 17 18  1  0
 18 19  1  0
 18 20  2  0
 20  2  1  0
 10  4  1  0
 20 13  1  0
M  END
$$$$
