
     RDKit          3D

 20 22  0  0  0  0  0  0  0  0999 V2000
   22.4598  -11.1568    5.0952 O   0  0  0  0  0  0  0  0  0  0  0  0
   23.4260  -10.4736    4.6697 C   0  0  0  0  0  0  0  0  0  0  0  0
   23.4325   -9.8885    3.4253 C   0  0  0  0  0  0  0  0  0  0  0  0
   22.3107  -10.0322    2.5298 C   0  0  0  0  0  0  0  0  0  0  0  0
   22.5606  -10.0386    1.1610 C   0  0  0  0  0  0  0  0  0  0  0  0
   21.5333  -10.1722    0.2543 C   0  0  0  0  0  0  0  0  0  0  0  0
   20.2459  -10.2999    0.7424 C   0  0  0  0  0  0  0  0  0  0  0  0
   19.1969  -10.4357   -0.1559 O   0  0  0  0  0  0  0  0  0  0  0  0
   20.0032  -10.2930    2.1022 C   0  0  0  0  0  0  0  0  0  0  0  0
   21.0374  -10.1587    3.0034 C   0  0  0  0  0  0  0  0  0  0  0  0
   24.5379   -9.1584    3.0487 C   0  0  0  0  0  0  0  0  0  0  0  0
   25.5693   -9.0129    3.8433 O   0  0  0  0  0  0  0  0  0  0  0  0
   25.6294   -9.5359    5.0264 C   0  0  0  0  0  0  0  0  0  0  0  0
   26.7044   -9.3958    5.8791 C   0  0  0  0  0  0  0  0  0  0  0  0
   26.6983   -9.9811    7.1243 C   0  0  0  0  0  0  0  0  0  0  0  0
   27.8030   -9.8073    7.9368 O   0  0  0  0  0  0  0  0  0  0  0  0
   25.6323  -10.7240    7.5705 C   0  0  0  0  0  0  0  0  0  0  0  0
   24.5536  -10.8695    6.7251 C   0  0  0  0  0  0  0  0  0  0  0  0
   23.4410  -11.6151    7.1272 O   0  0  0  0  0  0  0  0  0  0  0  0
   24.5464  -10.2838    5.4647 C   0  0  0  0  0  0  0  0  0  0  0  0
  1  2  2  0
  2  3  1  0
  3  4  1  0
  4  5  2  0
  5  6  1  0
  6  7  2  0
  7  8  1  0
  7  9  1  0
  9 10  2  0
  3 11  2  0
 11 12  1  0
 12 13  1  0
 13 14  2  0
 14 15  1  0
 15 16  1  0
 15 17  2  0
 17 18  1  0
 18 19  1  0
 18 20  2  0
 20  2  1  0
 10  4  1  0
 20 13  1  0
M  END
$$$$
