
     RDKit          3D

 20 22  0  0  0  0  0  0  0  0999 V2000
   15.1225   -2.5195   32.4555 O   0  0  0  0  0  0  0  0  0  0  0  0
   15.7333   -3.2173   33.3047 C   0  0  0  0  0  0  0  0  0  0  0  0
   15.0952   -3.8482   34.3467 C   0  0  0  0  0  0  0  0  0  0  0  0
   13.6674   -3.7388   34.5205 C   0  0  0  0  0  0  0  0  0  0  0  0
   12.8666   -3.7325   33.3825 C   0  0  0  0  0  0  0  0  0  0  0  0
   11.4973   -3.6307   33.4810 C   0  0  0  0  0  0  0  0  0  0  0  0
   10.9399   -3.5349   34.7428 C   0  0  0  0  0  0  0  0  0  0  0  0
    9.5613   -3.4314   34.8626 O   0  0  0  0  0  0  0  0  0  0  0  0
   11.7394   -3.5416   35.8693 C   0  0  0  0  0  0  0  0  0  0  0  0
   13.1096   -3.6439   35.7621 C   0  0  0  0  0  0  0  0  0  0  0  0
   15.8511   -4.5910   35.2264 C   0  0  0  0  0  0  0  0  0  0  0  0
   17.1490   -4.7060   35.0907 O   0  0  0  0  0  0  0  0  0  0  0  0
   17.8127   -4.1393   34.1340 C   0  0  0  0  0  0  0  0  0  0  0  0
   19.1782   -4.2469   33.9721 C   0  0  0  0  0  0  0  0  0  0  0  0
   19.8170   -3.6157   32.9296 C   0  0  0  0  0  0  0  0  0  0  0  0
   21.1872   -3.7584   32.8165 O   0  0  0  0  0  0  0  0  0  0  0  0
   19.1310   -2.8575   32.0120 C   0  0  0  0  0  0  0  0  0  0  0  0
   17.7661   -2.7445   32.1659 C   0  0  0  0  0  0  0  0  0  0  0  0
   17.0173   -1.9853   31.2613 O   0  0  0  0  0  0  0  0  0  0  0  0
   17.1080   -3.3766   33.2142 C   0  0  0  0  0  0  0  0  0  0  0  0
  1  2  2  0
  2  3  1  0
  3  4  1  0
  4  5  2  0
  5  6  1  0
  6  7  2  0
  7  8  1  0
  7  9  1  0
  9 10  2  0
  3 11  2  0
 11 12  1  0
 12 13  1  0
 13 14  2  0
 14 15  1  0
 15 16  1  0
 15 17  2  0
 17 18  1  0
 18 19  1  0
 18 20  2  0
 20  2  1  0
 10  4  1  0
 20 13  1  0
M  END
$$$$
