
     RDKit          3D

 20 22  0  0  0  0  0  0  0  0999 V2000
   22.4192  -11.3109    4.7493 O   0  0  0  0  0  0  0  0  0  0  0  0
   23.3929  -10.5973    4.3973 C   0  0  0  0  0  0  0  0  0  0  0  0
   23.4233   -9.9172    3.2025 C   0  0  0  0  0  0  0  0  0  0  0  0
   22.3194   -9.9899    2.2767 C   0  0  0  0  0  0  0  0  0  0  0  0
   21.0286  -10.0175    2.7957 C   0  0  0  0  0  0  0  0  0  0  0  0
   19.9329  -10.0865    1.9652 C   0  0  0  0  0  0  0  0  0  0  0  0
   20.1513  -10.1277    0.6004 C   0  0  0  0  0  0  0  0  0  0  0  0
   19.0594  -10.1975   -0.2532 O   0  0  0  0  0  0  0  0  0  0  0  0
   21.4347  -10.1001    0.0903 C   0  0  0  0  0  0  0  0  0  0  0  0
   22.5264  -10.0309    0.9287 C   0  0  0  0  0  0  0  0  0  0  0  0
   24.5352   -9.1607    2.9056 C   0  0  0  0  0  0  0  0  0  0  0  0
   25.5507   -9.0781    3.7292 O   0  0  0  0  0  0  0  0  0  0  0  0
   25.5881   -9.6916    4.8690 C   0  0  0  0  0  0  0  0  0  0  0  0
   26.6461   -9.6190    5.7509 C   0  0  0  0  0  0  0  0  0  0  0  0
   26.6161  -10.2994    6.9465 C   0  0  0  0  0  0  0  0  0  0  0  0
   27.7045  -10.1900    7.7915 O   0  0  0  0  0  0  0  0  0  0  0  0
   25.5421  -11.0741    7.3125 C   0  0  0  0  0  0  0  0  0  0  0  0
   24.4804  -11.1525    6.4373 C   0  0  0  0  0  0  0  0  0  0  0  0
   23.3608  -11.9265    6.7583 O   0  0  0  0  0  0  0  0  0  0  0  0
   24.4973  -10.4706    5.2265 C   0  0  0  0  0  0  0  0  0  0  0  0
  1  2  2  0
  2  3  1  0
  3  4  1  0
  4  5  2  0
  5  6  1  0
  6  7  2  0
  7  8  1  0
  7  9  1  0
  9 10  2  0
  3 11  2  0
 11 12  1  0
 12 13  1  0
 13 14  2  0
 14 15  1  0
 15 16  1  0
 15 17  2  0
 17 18  1  0
 18 19  1  0
 18 20  2  0
 20  2  1  0
 10  4  1  0
 20 13  1  0
M  END
$$$$
