
     RDKit          3D

 20 22  0  0  0  0  0  0  0  0999 V2000
   15.0912   -2.5568   32.3136 O   0  0  0  0  0  0  0  0  0  0  0  0
   15.6708   -3.2612   33.1791 C   0  0  0  0  0  0  0  0  0  0  0  0
   15.0096   -3.8214   34.2468 C   0  0  0  0  0  0  0  0  0  0  0  0
   13.5922   -3.6251   34.4302 C   0  0  0  0  0  0  0  0  0  0  0  0
   12.7890   -3.5441   33.2969 C   0  0  0  0  0  0  0  0  0  0  0  0
   11.4293   -3.3575   33.4046 C   0  0  0  0  0  0  0  0  0  0  0  0
   10.8843   -3.2527   34.6711 C   0  0  0  0  0  0  0  0  0  0  0  0
    9.5155   -3.0643   34.8002 O   0  0  0  0  0  0  0  0  0  0  0  0
   11.6861   -3.3338   35.7929 C   0  0  0  0  0  0  0  0  0  0  0  0
   13.0466   -3.5207   35.6764 C   0  0  0  0  0  0  0  0  0  0  0  0
   15.7317   -4.5780   35.1427 C   0  0  0  0  0  0  0  0  0  0  0  0
   17.0194   -4.7714   34.9987 O   0  0  0  0  0  0  0  0  0  0  0  0
   17.7035   -4.2741   34.0181 C   0  0  0  0  0  0  0  0  0  0  0  0
   19.0588   -4.4646   33.8470 C   0  0  0  0  0  0  0  0  0  0  0  0
   19.7208   -3.9043   32.7788 C   0  0  0  0  0  0  0  0  0  0  0  0
   21.0793   -4.1286   32.6575 O   0  0  0  0  0  0  0  0  0  0  0  0
   19.0688   -3.1374   31.8437 C   0  0  0  0  0  0  0  0  0  0  0  0
   17.7143   -2.9417   32.0067 C   0  0  0  0  0  0  0  0  0  0  0  0
   16.9999   -2.1698   31.0851 O   0  0  0  0  0  0  0  0  0  0  0  0
   17.0331   -3.5017   33.0809 C   0  0  0  0  0  0  0  0  0  0  0  0
  1  2  2  0
  2  3  1  0
  3  4  1  0
  4  5  2  0
  5  6  1  0
  6  7  2  0
  7  8  1  0
  7  9  1  0
  9 10  2  0
  3 11  2  0
 11 12  1  0
 12 13  1  0
 13 14  2  0
 14 15  1  0
 15 16  1  0
 15 17  2  0
 17 18  1  0
 18 19  1  0
 18 20  2  0
 20  2  1  0
 10  4  1  0
 20 13  1  0
M  END
$$$$
