
     RDKit          3D

 20 22  0  0  0  0  0  0  0  0999 V2000
   22.4290  -11.1304    4.9453 O   0  0  0  0  0  0  0  0  0  0  0  0
   23.4014  -10.4305    4.5634 C   0  0  0  0  0  0  0  0  0  0  0  0
   23.4139   -9.7689    3.3580 C   0  0  0  0  0  0  0  0  0  0  0  0
   22.2915   -9.8463    2.4551 C   0  0  0  0  0  0  0  0  0  0  0  0
   22.5515   -9.9222    1.0903 C   0  0  0  0  0  0  0  0  0  0  0  0
   21.5242   -9.9982    0.1770 C   0  0  0  0  0  0  0  0  0  0  0  0
   20.2265   -9.9972    0.6544 C   0  0  0  0  0  0  0  0  0  0  0  0
   19.1773  -10.0732   -0.2507 O   0  0  0  0  0  0  0  0  0  0  0  0
   19.9738   -9.9217    2.0103 C   0  0  0  0  0  0  0  0  0  0  0  0
   21.0081   -9.8458    2.9181 C   0  0  0  0  0  0  0  0  0  0  0  0
   24.5260   -9.0265    3.0280 C   0  0  0  0  0  0  0  0  0  0  0  0
   25.5581   -8.9400    3.8303 O   0  0  0  0  0  0  0  0  0  0  0  0
   25.6128   -9.5365    4.9784 C   0  0  0  0  0  0  0  0  0  0  0  0
   26.6884   -9.4594    5.8383 C   0  0  0  0  0  0  0  0  0  0  0  0
   26.6762  -10.1213    7.0445 C   0  0  0  0  0  0  0  0  0  0  0  0
   27.7819  -10.0084    7.8664 O   0  0  0  0  0  0  0  0  0  0  0  0
   25.6034  -10.8813    7.4432 C   0  0  0  0  0  0  0  0  0  0  0  0
   24.5240  -10.9640    6.5902 C   0  0  0  0  0  0  0  0  0  0  0  0
   23.4047  -11.7234    6.9448 O   0  0  0  0  0  0  0  0  0  0  0  0
   24.5229  -10.3006    5.3689 C   0  0  0  0  0  0  0  0  0  0  0  0
  1  2  2  0
  2  3  1  0
  3  4  1  0
  4  5  2  0
  5  6  1  0
  6  7  2  0
  7  8  1  0
  7  9  1  0
  9 10  2  0
  3 11  2  0
 11 12  1  0
 12 13  1  0
 13 14  2  0
 14 15  1  0
 15 16  1  0
 15 17  2  0
 17 18  1  0
 18 19  1  0
 18 20  2  0
 20  2  1  0
 10  4  1  0
 20 13  1  0
M  END
$$$$
