
     RDKit          3D

 20 22  0  0  0  0  0  0  0  0999 V2000
   15.1452   -2.6043   32.3457 O   0  0  0  0  0  0  0  0  0  0  0  0
   15.7490   -3.2553   33.2363 C   0  0  0  0  0  0  0  0  0  0  0  0
   15.1082   -3.7959   34.3261 C   0  0  0  0  0  0  0  0  0  0  0  0
   13.6853   -3.6403   34.5053 C   0  0  0  0  0  0  0  0  0  0  0  0
   12.8825   -3.5920   33.3698 C   0  0  0  0  0  0  0  0  0  0  0  0
   11.5176   -3.4450   33.4735 C   0  0  0  0  0  0  0  0  0  0  0  0
   10.9669   -3.3466   34.7380 C   0  0  0  0  0  0  0  0  0  0  0  0
    9.5929   -3.1979   34.8630 O   0  0  0  0  0  0  0  0  0  0  0  0
   11.7684   -3.3951   35.8620 C   0  0  0  0  0  0  0  0  0  0  0  0
   13.1341   -3.5425   35.7496 C   0  0  0  0  0  0  0  0  0  0  0  0
   15.8563   -4.4930   35.2487 C   0  0  0  0  0  0  0  0  0  0  0  0
   17.1496   -4.6485   35.1091 O   0  0  0  0  0  0  0  0  0  0  0  0
   17.8155   -4.1665   34.1086 C   0  0  0  0  0  0  0  0  0  0  0  0
   19.1763   -4.3180   33.9417 C   0  0  0  0  0  0  0  0  0  0  0  0
   19.8179   -3.7771   32.8512 C   0  0  0  0  0  0  0  0  0  0  0  0
   21.1831   -3.9603   32.7354 O   0  0  0  0  0  0  0  0  0  0  0  0
   19.1395   -3.0690   31.8890 C   0  0  0  0  0  0  0  0  0  0  0  0
   17.7794   -2.9126   32.0476 C   0  0  0  0  0  0  0  0  0  0  0  0
   17.0385   -2.2010   31.0989 O   0  0  0  0  0  0  0  0  0  0  0  0
   17.1186   -3.4536   33.1441 C   0  0  0  0  0  0  0  0  0  0  0  0
  1  2  2  0
  2  3  1  0
  3  4  1  0
  4  5  2  0
  5  6  1  0
  6  7  2  0
  7  8  1  0
  7  9  1  0
  9 10  2  0
  3 11  2  0
 11 12  1  0
 12 13  1  0
 13 14  2  0
 14 15  1  0
 15 16  1  0
 15 17  2  0
 17 18  1  0
 18 19  1  0
 18 20  2  0
 20  2  1  0
 10  4  1  0
 20 13  1  0
M  END
$$$$
