
     RDKit          3D

 20 22  0  0  0  0  0  0  0  0999 V2000
   22.4513  -11.1758    4.8499 O   0  0  0  0  0  0  0  0  0  0  0  0
   23.4325  -10.4671    4.5089 C   0  0  0  0  0  0  0  0  0  0  0  0
   23.4849   -9.7969    3.3093 C   0  0  0  0  0  0  0  0  0  0  0  0
   22.3971   -9.8752    2.3651 C   0  0  0  0  0  0  0  0  0  0  0  0
   21.0971   -9.8825    2.8613 C   0  0  0  0  0  0  0  0  0  0  0  0
   20.0157   -9.9555    2.0124 C   0  0  0  0  0  0  0  0  0  0  0  0
   20.2579  -10.0214    0.6527 C   0  0  0  0  0  0  0  0  0  0  0  0
   19.1808  -10.0955   -0.2191 O   0  0  0  0  0  0  0  0  0  0  0  0
   21.5504  -10.0138    0.1653 C   0  0  0  0  0  0  0  0  0  0  0  0
   22.6276   -9.9405    1.0219 C   0  0  0  0  0  0  0  0  0  0  0  0
   24.6034   -9.0451    3.0255 C   0  0  0  0  0  0  0  0  0  0  0  0
   25.6047   -8.9578    3.8658 O   0  0  0  0  0  0  0  0  0  0  0  0
   25.6211   -9.5619    5.0110 C   0  0  0  0  0  0  0  0  0  0  0  0
   26.6638   -9.4840    5.9105 C   0  0  0  0  0  0  0  0  0  0  0  0
   26.6117  -10.1544    7.1110 C   0  0  0  0  0  0  0  0  0  0  0  0
   27.6855  -10.0401    7.9738 O   0  0  0  0  0  0  0  0  0  0  0  0
   25.5299  -10.9239    7.4647 C   0  0  0  0  0  0  0  0  0  0  0  0
   24.4833  -11.0075    6.5720 C   0  0  0  0  0  0  0  0  0  0  0  0
   23.3567  -11.7766    6.8799 O   0  0  0  0  0  0  0  0  0  0  0  0
   24.5226  -10.3357    5.3560 C   0  0  0  0  0  0  0  0  0  0  0  0
  1  2  2  0
  2  3  1  0
  3  4  1  0
  4  5  2  0
  5  6  1  0
  6  7  2  0
  7  8  1  0
  7  9  1  0
  9 10  2  0
  3 11  2  0
 11 12  1  0
 12 13  1  0
 13 14  2  0
 14 15  1  0
 15 16  1  0
 15 17  2  0
 17 18  1  0
 18 19  1  0
 18 20  2  0
 20  2  1  0
 10  4  1  0
 20 13  1  0
M  END
$$$$
