
     RDKit          3D

 20 22  0  0  0  0  0  0  0  0999 V2000
   22.4601  -11.0678    5.1287 O   0  0  0  0  0  0  0  0  0  0  0  0
   23.4543  -10.4450    4.6761 C   0  0  0  0  0  0  0  0  0  0  0  0
   23.4927   -9.9303    3.4016 C   0  0  0  0  0  0  0  0  0  0  0  0
   22.3737  -10.0821    2.5039 C   0  0  0  0  0  0  0  0  0  0  0  0
   22.6293  -10.1150    1.1366 C   0  0  0  0  0  0  0  0  0  0  0  0
   21.6049  -10.2577    0.2280 C   0  0  0  0  0  0  0  0  0  0  0  0
   20.3146  -10.3674    0.7127 C   0  0  0  0  0  0  0  0  0  0  0  0
   19.2684  -10.5120   -0.1875 O   0  0  0  0  0  0  0  0  0  0  0  0
   20.0662  -10.3342    2.0711 C   0  0  0  0  0  0  0  0  0  0  0  0
   21.0975  -10.1910    2.9742 C   0  0  0  0  0  0  0  0  0  0  0  0
   24.6274   -9.2630    2.9967 C   0  0  0  0  0  0  0  0  0  0  0  0
   25.6570   -9.1116    3.7926 O   0  0  0  0  0  0  0  0  0  0  0  0
   25.6881   -9.5703    5.0032 C   0  0  0  0  0  0  0  0  0  0  0  0
   26.7606   -9.4226    5.8578 C   0  0  0  0  0  0  0  0  0  0  0  0
   26.7226   -9.9375    7.1332 C   0  0  0  0  0  0  0  0  0  0  0  0
   27.8263   -9.7595    7.9461 O   0  0  0  0  0  0  0  0  0  0  0  0
   25.6261  -10.6151    7.6086 C   0  0  0  0  0  0  0  0  0  0  0  0
   24.5497  -10.7675    6.7616 C   0  0  0  0  0  0  0  0  0  0  0  0
   23.4070  -11.4486    7.1927 O   0  0  0  0  0  0  0  0  0  0  0  0
   24.5745  -10.2526    5.4709 C   0  0  0  0  0  0  0  0  0  0  0  0
  1  2  2  0
  2  3  1  0
  3  4  1  0
  4  5  2  0
  5  6  1  0
  6  7  2  0
  7  8  1  0
  7  9  1  0
  9 10  2  0
  3 11  2  0
 11 12  1  0
 12 13  1  0
 13 14  2  0
 14 15  1  0
 15 16  1  0
 15 17  2  0
 17 18  1  0
 18 19  1  0
 18 20  2  0
 20  2  1  0
 10  4  1  0
 20 13  1  0
M  END
$$$$
