
     RDKit          3D

 20 22  0  0  0  0  0  0  0  0999 V2000
   15.1493   -2.4845   32.5033 O   0  0  0  0  0  0  0  0  0  0  0  0
   15.7486   -3.2012   33.3451 C   0  0  0  0  0  0  0  0  0  0  0  0
   15.1047   -3.8092   34.3971 C   0  0  0  0  0  0  0  0  0  0  0  0
   13.6839   -3.6521   34.5908 C   0  0  0  0  0  0  0  0  0  0  0  0
   12.8680   -3.6183   33.4642 C   0  0  0  0  0  0  0  0  0  0  0  0
   11.5043   -3.4707   33.5819 C   0  0  0  0  0  0  0  0  0  0  0  0
   10.9683   -3.3569   34.8514 C   0  0  0  0  0  0  0  0  0  0  0  0
    9.5957   -3.2074   34.9905 O   0  0  0  0  0  0  0  0  0  0  0  0
   11.7827   -3.3911   35.9665 C   0  0  0  0  0  0  0  0  0  0  0  0
   13.1471   -3.5392   35.8401 C   0  0  0  0  0  0  0  0  0  0  0  0
   15.8479   -4.5756   35.2672 C   0  0  0  0  0  0  0  0  0  0  0  0
   17.1392   -4.7339   35.1133 O   0  0  0  0  0  0  0  0  0  0  0  0
   17.8077   -4.1909   34.1463 C   0  0  0  0  0  0  0  0  0  0  0  0
   19.1664   -4.3440   33.9653 C   0  0  0  0  0  0  0  0  0  0  0  0
   19.8110   -3.7358   32.9128 C   0  0  0  0  0  0  0  0  0  0  0  0
   21.1740   -3.9242   32.7805 O   0  0  0  0  0  0  0  0  0  0  0  0
   19.1376   -2.9563   32.0036 C   0  0  0  0  0  0  0  0  0  0  0  0
   17.7795   -2.7977   32.1767 C   0  0  0  0  0  0  0  0  0  0  0  0
   17.0437   -2.0151   31.2815 O   0  0  0  0  0  0  0  0  0  0  0  0
   17.1158   -3.4063   33.2353 C   0  0  0  0  0  0  0  0  0  0  0  0
  1  2  2  0
  2  3  1  0
  3  4  1  0
  4  5  2  0
  5  6  1  0
  6  7  2  0
  7  8  1  0
  7  9  1  0
  9 10  2  0
  3 11  2  0
 11 12  1  0
 12 13  1  0
 13 14  2  0
 14 15  1  0
 15 16  1  0
 15 17  2  0
 17 18  1  0
 18 19  1  0
 18 20  2  0
 20  2  1  0
 10  4  1  0
 20 13  1  0
M  END
$$$$
