
     RDKit          3D

 20 22  0  0  0  0  0  0  0  0999 V2000
   22.4946  -11.2681    4.8976 O   0  0  0  0  0  0  0  0  0  0  0  0
   23.4615  -10.5528    4.5303 C   0  0  0  0  0  0  0  0  0  0  0  0
   23.4988   -9.9228    3.3086 C   0  0  0  0  0  0  0  0  0  0  0  0
   22.4108  -10.0535    2.3705 C   0  0  0  0  0  0  0  0  0  0  0  0
   21.1123  -10.0721    2.8703 C   0  0  0  0  0  0  0  0  0  0  0  0
   20.0309  -10.1943    2.0272 C   0  0  0  0  0  0  0  0  0  0  0  0
   20.2715  -10.2982    0.6696 C   0  0  0  0  0  0  0  0  0  0  0  0
   19.1942  -10.4222   -0.1964 O   0  0  0  0  0  0  0  0  0  0  0  0
   21.5625  -10.2792    0.1786 C   0  0  0  0  0  0  0  0  0  0  0  0
   22.6398  -10.1565    1.0294 C   0  0  0  0  0  0  0  0  0  0  0  0
   24.6023   -9.1600    2.9967 C   0  0  0  0  0  0  0  0  0  0  0  0
   25.6034   -9.0254    3.8309 O   0  0  0  0  0  0  0  0  0  0  0  0
   25.6335   -9.5900    4.9959 C   0  0  0  0  0  0  0  0  0  0  0  0
   26.6763   -9.4621    5.8895 C   0  0  0  0  0  0  0  0  0  0  0  0
   26.6393  -10.0924    7.1120 C   0  0  0  0  0  0  0  0  0  0  0  0
   27.7125   -9.9288    7.9677 O   0  0  0  0  0  0  0  0  0  0  0  0
   25.5730  -10.8698    7.4944 C   0  0  0  0  0  0  0  0  0  0  0  0
   24.5264  -11.0033    6.6078 C   0  0  0  0  0  0  0  0  0  0  0  0
   23.4152  -11.7826    6.9444 O   0  0  0  0  0  0  0  0  0  0  0  0
   24.5506  -10.3723    5.3697 C   0  0  0  0  0  0  0  0  0  0  0  0
  1  2  2  0
  2  3  1  0
  3  4  1  0
  4  5  2  0
  5  6  1  0
  6  7  2  0
  7  8  1  0
  7  9  1  0
  9 10  2  0
  3 11  2  0
 11 12  1  0
 12 13  1  0
 13 14  2  0
 14 15  1  0
 15 16  1  0
 15 17  2  0
 17 18  1  0
 18 19  1  0
 18 20  2  0
 20  2  1  0
 10  4  1  0
 20 13  1  0
M  END
$$$$
