
     RDKit          3D

 20 22  0  0  0  0  0  0  0  0999 V2000
   24.6364   -8.8651    2.8022 O   0  0  0  0  0  0  0  0  0  0  0  0
   24.2937   -9.5926    3.7689 C   0  0  0  0  0  0  0  0  0  0  0  0
   23.0952  -10.2658    3.8051 C   0  0  0  0  0  0  0  0  0  0  0  0
   22.1543  -10.1690    2.7159 C   0  0  0  0  0  0  0  0  0  0  0  0
   22.6564  -10.0781    1.4214 C   0  0  0  0  0  0  0  0  0  0  0  0
   21.8109   -9.9832    0.3391 C   0  0  0  0  0  0  0  0  0  0  0  0
   20.4484   -9.9808    0.5748 C   0  0  0  0  0  0  0  0  0  0  0  0
   19.5799   -9.8859   -0.5034 O   0  0  0  0  0  0  0  0  0  0  0  0
   19.9551  -10.0712    1.8619 C   0  0  0  0  0  0  0  0  0  0  0  0
   20.8084  -10.1659    2.9400 C   0  0  0  0  0  0  0  0  0  0  0  0
   22.8093  -11.0388    4.9084 C   0  0  0  0  0  0  0  0  0  0  0  0
   23.6466  -11.1433    5.9106 O   0  0  0  0  0  0  0  0  0  0  0  0
   24.7907  -10.5376    5.9419 C   0  0  0  0  0  0  0  0  0  0  0  0
   25.6870  -10.6333    6.9858 C   0  0  0  0  0  0  0  0  0  0  0  0
   26.8864   -9.9598    6.9500 C   0  0  0  0  0  0  0  0  0  0  0  0
   27.7461  -10.0925    8.0243 O   0  0  0  0  0  0  0  0  0  0  0  0
   27.2421   -9.1696    5.8839 C   0  0  0  0  0  0  0  0  0  0  0  0
   26.3525   -9.0681    4.8361 C   0  0  0  0  0  0  0  0  0  0  0  0
   26.6625   -8.2776    3.7251 O   0  0  0  0  0  0  0  0  0  0  0  0
   25.1376   -9.7428    4.8591 C   0  0  0  0  0  0  0  0  0  0  0  0
  1  2  2  0
  2  3  1  0
  3  4  1  0
  4  5  2  0
  5  6  1  0
  6  7  2  0
  7  8  1  0
  7  9  1  0
  9 10  2  0
  3 11  2  0
 11 12  1  0
 12 13  1  0
 13 14  2  0
 14 15  1  0
 15 16  1  0
 15 17  2  0
 17 18  1  0
 18 19  1  0
 18 20  2  0
 20  2  1  0
 10  4  1  0
 20 13  1  0
M  END
$$$$
