
     RDKit          3D

 20 22  0  0  0  0  0  0  0  0999 V2000
   15.1184   -2.5405   32.3490 O   0  0  0  0  0  0  0  0  0  0  0  0
   15.6857   -3.2383   33.2280 C   0  0  0  0  0  0  0  0  0  0  0  0
   15.0046   -3.8148   34.2742 C   0  0  0  0  0  0  0  0  0  0  0  0
   13.5794   -3.6446   34.4181 C   0  0  0  0  0  0  0  0  0  0  0  0
   12.8078   -3.5688   33.2626 C   0  0  0  0  0  0  0  0  0  0  0  0
   11.4425   -3.4067   33.3324 C   0  0  0  0  0  0  0  0  0  0  0  0
   10.8595   -3.3212   34.5833 C   0  0  0  0  0  0  0  0  0  0  0  0
    9.4845   -3.1576   34.6742 O   0  0  0  0  0  0  0  0  0  0  0  0
   11.6300   -3.3970   35.7272 C   0  0  0  0  0  0  0  0  0  0  0  0
   12.9964   -3.5594   35.6487 C   0  0  0  0  0  0  0  0  0  0  0  0
   15.7145   -4.5624   35.1874 C   0  0  0  0  0  0  0  0  0  0  0  0
   17.0090   -4.7322   35.0792 O   0  0  0  0  0  0  0  0  0  0  0  0
   17.7116   -4.2185   34.1204 C   0  0  0  0  0  0  0  0  0  0  0  0
   19.0744   -4.3841   33.9871 C   0  0  0  0  0  0  0  0  0  0  0  0
   19.7563   -3.8074   32.9404 C   0  0  0  0  0  0  0  0  0  0  0  0
   21.1215   -4.0070   32.8569 O   0  0  0  0  0  0  0  0  0  0  0  0
   19.1174   -3.0482   31.9901 C   0  0  0  0  0  0  0  0  0  0  0  0
   17.7556   -2.8772   32.1153 C   0  0  0  0  0  0  0  0  0  0  0  0
   17.0539   -2.1142   31.1769 O   0  0  0  0  0  0  0  0  0  0  0  0
   17.0544   -3.4541   33.1675 C   0  0  0  0  0  0  0  0  0  0  0  0
  1  2  2  0
  2  3  1  0
  3  4  1  0
  4  5  2  0
  5  6  1  0
  6  7  2  0
  7  8  1  0
  7  9  1  0
  9 10  2  0
  3 11  2  0
 11 12  1  0
 12 13  1  0
 13 14  2  0
 14 15  1  0
 15 16  1  0
 15 17  2  0
 17 18  1  0
 18 19  1  0
 18 20  2  0
 20  2  1  0
 10  4  1  0
 20 13  1  0
M  END
$$$$
