
     RDKit          3D

 20 22  0  0  0  0  0  0  0  0999 V2000
   15.1045   -2.6440   32.2951 O   0  0  0  0  0  0  0  0  0  0  0  0
   15.7469   -3.2680   33.1778 C   0  0  0  0  0  0  0  0  0  0  0  0
   15.1461   -3.8198   34.2848 C   0  0  0  0  0  0  0  0  0  0  0  0
   13.7229   -3.7081   34.4922 C   0  0  0  0  0  0  0  0  0  0  0  0
   12.8943   -3.7172   33.3743 C   0  0  0  0  0  0  0  0  0  0  0  0
   11.5277   -3.6141   33.5051 C   0  0  0  0  0  0  0  0  0  0  0  0
   11.0017   -3.5012   34.7789 C   0  0  0  0  0  0  0  0  0  0  0  0
    9.6264   -3.3962   34.9313 O   0  0  0  0  0  0  0  0  0  0  0  0
   11.8287   -3.4926   35.8853 C   0  0  0  0  0  0  0  0  0  0  0  0
   13.1959   -3.5963   35.7457 C   0  0  0  0  0  0  0  0  0  0  0  0
   15.9348   -4.4851   35.1969 C   0  0  0  0  0  0  0  0  0  0  0  0
   17.2293   -4.6005   35.0318 O   0  0  0  0  0  0  0  0  0  0  0  0
   17.8589   -4.1058   34.0141 C   0  0  0  0  0  0  0  0  0  0  0  0
   19.2201   -4.2152   33.8202 C   0  0  0  0  0  0  0  0  0  0  0  0
   19.8216   -3.6632   32.7127 C   0  0  0  0  0  0  0  0  0  0  0  0
   21.1893   -3.8038   32.5700 O   0  0  0  0  0  0  0  0  0  0  0  0
   19.1014   -2.9850   31.7593 C   0  0  0  0  0  0  0  0  0  0  0  0
   17.7406   -2.8707   31.9448 C   0  0  0  0  0  0  0  0  0  0  0  0
   16.9580   -2.1909   31.0063 O   0  0  0  0  0  0  0  0  0  0  0  0
   17.1199   -3.4233   33.0588 C   0  0  0  0  0  0  0  0  0  0  0  0
  1  2  2  0
  2  3  1  0
  3  4  1  0
  4  5  2  0
  5  6  1  0
  6  7  2  0
  7  8  1  0
  7  9  1  0
  9 10  2  0
  3 11  2  0
 11 12  1  0
 12 13  1  0
 13 14  2  0
 14 15  1  0
 15 16  1  0
 15 17  2  0
 17 18  1  0
 18 19  1  0
 18 20  2  0
 20  2  1  0
 10  4  1  0
 20 13  1  0
M  END
$$$$
