6Z1C_7EY_holo_aligned_esmfold_protein
     RDKit          3D

 22 24  0  0  0  0  0  0  0  0999 V2000
   12.6754   -8.0199   24.3723 C   0  0  0  0  0  0  0  0  0  0  0  0
   11.2956   -7.4761   24.0994 C   0  0  0  0  0  0  0  0  0  0  0  0
   11.0909   -6.4618   23.1700 C   0  0  0  0  0  0  0  0  0  0  0  0
    9.8033   -5.9732   22.9295 C   0  0  0  0  0  0  0  0  0  0  0  0
    8.6744   -6.4220   23.6365 C   0  0  0  0  0  0  0  0  0  0  0  0
    7.2874   -5.9172   23.3485 C   0  0  0  0  0  0  0  0  0  0  0  0
    6.2994   -6.8816   23.2564 C   0  0  0  0  0  0  0  0  0  0  0  0
    4.8266   -6.3660   22.4512 S   0  0  0  0  0  0  0  0  0  0  0  0
    5.5360   -4.7907   22.1351 C   0  0  0  0  0  0  0  0  0  0  0  0
    5.0621   -3.9122   21.1594 N   0  0  0  0  0  0  0  0  0  0  0  0
    5.8351   -2.7887   20.8442 C   0  0  0  0  0  0  0  0  0  0  0  0
    7.0350   -2.5114   21.4920 N   0  0  0  0  0  0  0  0  0  0  0  0
    7.5452   -3.3857   22.4304 C   0  0  0  0  0  0  0  0  0  0  0  0
    9.0878   -3.0067   23.2371 S   0  0  0  0  0  0  0  0  0  0  0  0
   10.2422   -2.1876   22.0889 C   0  0  0  0  0  0  0  0  0  0  0  0
   10.7595   -0.9675   22.8255 C   0  0  0  0  0  0  0  0  0  0  0  0
   12.1656   -0.5049   22.4463 C   0  0  0  0  0  0  0  0  0  0  0  0
   12.3470   -0.0444   21.3355 O   0  0  0  0  0  0  0  0  0  0  0  0
   13.1490   -0.5459   23.3851 O   0  0  0  0  0  0  0  0  0  0  0  0
    6.8059   -4.6002   22.8066 C   0  0  0  0  0  0  0  0  0  0  0  0
    8.9002   -7.4709   24.5497 C   0  0  0  0  0  0  0  0  0  0  0  0
   10.1893   -7.9888   24.7717 C   0  0  0  0  0  0  0  0  0  0  0  0
  1  2  1  0
  2  3  2  0
  3  4  1  0
  4  5  2  0
  5  6  1  0
  6  7  2  0
  7  8  1  0
  8  9  1  0
  9 10  2  0
 10 11  1  0
 11 12  2  0
 12 13  1  0
 13 14  1  0
 14 15  1  0
 15 16  1  0
 16 17  1  0
 17 18  2  0
 17 19  1  0
 13 20  2  0
  5 21  1  0
 21 22  2  0
 22  2  1  0
 20  6  1  0
 20  9  1  0
M  END
