
     RDKit          3D

 22 24  0  0  0  0  0  0  0  0999 V2000
   10.9011   -8.3175   25.2088 C   0  0  0  0  0  0  0  0  0  0  0  0
    9.8367   -7.7220   24.3651 C   0  0  0  0  0  0  0  0  0  0  0  0
    8.5079   -7.7898   24.7373 C   0  0  0  0  0  0  0  0  0  0  0  0
    7.5289   -7.2269   23.9385 C   0  0  0  0  0  0  0  0  0  0  0  0
    7.8554   -6.5869   22.7576 C   0  0  0  0  0  0  0  0  0  0  0  0
    6.7409   -6.0054   21.9272 C   0  0  0  0  0  0  0  0  0  0  0  0
    5.7744   -6.8876   21.4639 C   0  0  0  0  0  0  0  0  0  0  0  0
    4.6508   -5.8720   20.7175 S   0  0  0  0  0  0  0  0  0  0  0  0
    5.3951   -4.3672   20.9885 C   0  0  0  0  0  0  0  0  0  0  0  0
    5.0610   -3.0777   20.6796 N   0  0  0  0  0  0  0  0  0  0  0  0
    5.8475   -2.0511   21.0344 C   0  0  0  0  0  0  0  0  0  0  0  0
    6.9476   -2.3415   21.6851 N   0  0  0  0  0  0  0  0  0  0  0  0
    7.3308   -3.5845   22.0156 C   0  0  0  0  0  0  0  0  0  0  0  0
    8.8973   -3.6794   22.8601 S   0  0  0  0  0  0  0  0  0  0  0  0
   10.1606   -2.9456   21.7996 C   0  0  0  0  0  0  0  0  0  0  0  0
   10.2308   -1.4428   21.8601 C   0  0  0  0  0  0  0  0  0  0  0  0
   11.5713   -1.0600   22.3968 C   0  0  0  0  0  0  0  0  0  0  0  0
   12.1041   -0.0219   21.9632 O   0  0  0  0  0  0  0  0  0  0  0  0
   12.2039   -1.8244   23.3415 O   0  0  0  0  0  0  0  0  0  0  0  0
    6.5417   -4.6931   21.6745 C   0  0  0  0  0  0  0  0  0  0  0  0
    9.1559   -6.5090   22.3721 C   0  0  0  0  0  0  0  0  0  0  0  0
   10.1296   -7.0781   23.1821 C   0  0  0  0  0  0  0  0  0  0  0  0
  1  2  1  0
  2  3  2  0
  3  4  1  0
  4  5  2  0
  5  6  1  0
  6  7  2  0
  7  8  1  0
  8  9  1  0
  9 10  2  0
 10 11  1  0
 11 12  2  0
 12 13  1  0
 13 14  1  0
 14 15  1  0
 15 16  1  0
 16 17  1  0
 17 18  2  0
 17 19  1  0
 13 20  2  0
  5 21  1  0
 21 22  2  0
 22  2  1  0
 20  6  1  0
 20  9  1  0
M  END
$$$$
