
     RDKit          3D

 22 24  0  0  0  0  0  0  0  0999 V2000
   11.8947   -0.6295   22.5126 C   0  0  0  0  0  0  0  0  0  0  0  0
   10.8109   -1.6373   22.4158 C   0  0  0  0  0  0  0  0  0  0  0  0
   10.9913   -2.9273   22.8763 C   0  0  0  0  0  0  0  0  0  0  0  0
    9.9683   -3.8534   22.7794 C   0  0  0  0  0  0  0  0  0  0  0  0
    8.7495   -3.5113   22.2240 C   0  0  0  0  0  0  0  0  0  0  0  0
    7.6808   -4.5697   22.1369 C   0  0  0  0  0  0  0  0  0  0  0  0
    6.5376   -4.2525   21.4162 C   0  0  0  0  0  0  0  0  0  0  0  0
    5.6627   -5.6967   21.4251 S   0  0  0  0  0  0  0  0  0  0  0  0
    6.7254   -6.6740   22.3236 C   0  0  0  0  0  0  0  0  0  0  0  0
    6.6958   -7.9801   22.7277 N   0  0  0  0  0  0  0  0  0  0  0  0
    7.7021   -8.5120   23.4367 C   0  0  0  0  0  0  0  0  0  0  0  0
    8.7086   -7.7235   23.7252 N   0  0  0  0  0  0  0  0  0  0  0  0
    8.7953   -6.4352   23.3594 C   0  0  0  0  0  0  0  0  0  0  0  0
   10.2600   -5.5968   23.9324 S   0  0  0  0  0  0  0  0  0  0  0  0
   11.2657   -6.7767   24.8572 C   0  0  0  0  0  0  0  0  0  0  0  0
   12.6121   -7.0628   24.2471 C   0  0  0  0  0  0  0  0  0  0  0  0
   13.3784   -5.7818   24.1872 C   0  0  0  0  0  0  0  0  0  0  0  0
   14.6183   -5.8417   24.0947 O   0  0  0  0  0  0  0  0  0  0  0  0
   12.7416   -4.5696   24.2310 O   0  0  0  0  0  0  0  0  0  0  0  0
    7.7736   -5.8314   22.6113 C   0  0  0  0  0  0  0  0  0  0  0  0
    8.5505   -2.2484   21.7643 C   0  0  0  0  0  0  0  0  0  0  0  0
    9.5851   -1.3278   21.8668 C   0  0  0  0  0  0  0  0  0  0  0  0
  1  2  1  0
  2  3  2  0
  3  4  1  0
  4  5  2  0
  5  6  1  0
  6  7  2  0
  7  8  1  0
  8  9  1  0
  9 10  2  0
 10 11  1  0
 11 12  2  0
 12 13  1  0
 13 14  1  0
 14 15  1  0
 15 16  1  0
 16 17  1  0
 17 18  2  0
 17 19  1  0
 13 20  2  0
  5 21  1  0
 21 22  2  0
 22  2  1  0
 20  6  1  0
 20  9  1  0
M  END
$$$$
