
     RDKit          3D

 22 24  0  0  0  0  0  0  0  0999 V2000
    7.1321   -0.8224   20.2829 C   0  0  0  0  0  0  0  0  0  0  0  0
    7.0869   -2.2256   20.7608 C   0  0  0  0  0  0  0  0  0  0  0  0
    8.2197   -3.0164   20.7636 C   0  0  0  0  0  0  0  0  0  0  0  0
    8.1590   -4.3226   21.2149 C   0  0  0  0  0  0  0  0  0  0  0  0
    6.9712   -4.8629   21.6712 C   0  0  0  0  0  0  0  0  0  0  0  0
    6.9696   -6.2955   22.1377 C   0  0  0  0  0  0  0  0  0  0  0  0
    5.9089   -7.0907   21.7259 C   0  0  0  0  0  0  0  0  0  0  0  0
    6.3219   -8.6192   22.3129 S   0  0  0  0  0  0  0  0  0  0  0  0
    7.8033   -8.2514   23.0624 C   0  0  0  0  0  0  0  0  0  0  0  0
    8.7294   -8.9937   23.7417 N   0  0  0  0  0  0  0  0  0  0  0  0
    9.8461   -8.4349   24.2307 C   0  0  0  0  0  0  0  0  0  0  0  0
   10.0051   -7.1493   24.0303 N   0  0  0  0  0  0  0  0  0  0  0  0
    9.1335   -6.3678   23.3742 C   0  0  0  0  0  0  0  0  0  0  0  0
    9.5916   -4.6473   23.2949 S   0  0  0  0  0  0  0  0  0  0  0  0
   11.1575   -4.4348   24.1675 C   0  0  0  0  0  0  0  0  0  0  0  0
   12.3445   -4.1984   23.2719 C   0  0  0  0  0  0  0  0  0  0  0  0
   12.3930   -2.7435   22.9365 C   0  0  0  0  0  0  0  0  0  0  0  0
   13.5044   -2.2263   22.7205 O   0  0  0  0  0  0  0  0  0  0  0  0
   11.2500   -1.9916   22.8654 O   0  0  0  0  0  0  0  0  0  0  0  0
    7.9531   -6.9029   22.8371 C   0  0  0  0  0  0  0  0  0  0  0  0
    5.8448   -4.1032   21.6767 C   0  0  0  0  0  0  0  0  0  0  0  0
    5.9184   -2.7936   21.2210 C   0  0  0  0  0  0  0  0  0  0  0  0
  1  2  1  0
  2  3  2  0
  3  4  1  0
  4  5  2  0
  5  6  1  0
  6  7  2  0
  7  8  1  0
  8  9  1  0
  9 10  2  0
 10 11  1  0
 11 12  2  0
 12 13  1  0
 13 14  1  0
 14 15  1  0
 15 16  1  0
 16 17  1  0
 17 18  2  0
 17 19  1  0
 13 20  2  0
  5 21  1  0
 21 22  2  0
 22  2  1  0
 20  6  1  0
 20  9  1  0
M  END
$$$$
