
     RDKit          3D

 22 24  0  0  0  0  0  0  0  0999 V2000
   12.1072   -0.9452   22.5727 C   0  0  0  0  0  0  0  0  0  0  0  0
   10.9394   -1.8483   22.4300 C   0  0  0  0  0  0  0  0  0  0  0  0
   11.0675   -3.2138   22.5959 C   0  0  0  0  0  0  0  0  0  0  0  0
    9.9666   -4.0405   22.4609 C   0  0  0  0  0  0  0  0  0  0  0  0
    8.7210   -3.5225   22.1596 C   0  0  0  0  0  0  0  0  0  0  0  0
    7.5651   -4.4778   22.0141 C   0  0  0  0  0  0  0  0  0  0  0  0
    6.4788   -4.0429   21.2672 C   0  0  0  0  0  0  0  0  0  0  0  0
    5.4781   -5.4020   21.2141 S   0  0  0  0  0  0  0  0  0  0  0  0
    6.4194   -6.4907   22.1199 C   0  0  0  0  0  0  0  0  0  0  0  0
    6.2598   -7.7973   22.4905 N   0  0  0  0  0  0  0  0  0  0  0  0
    7.1910   -8.4334   23.2162 C   0  0  0  0  0  0  0  0  0  0  0  0
    8.2543   -7.7456   23.5543 N   0  0  0  0  0  0  0  0  0  0  0  0
    8.4678   -6.4627   23.2232 C   0  0  0  0  0  0  0  0  0  0  0  0
    9.9825   -5.7729   23.8606 S   0  0  0  0  0  0  0  0  0  0  0  0
   10.7992   -7.0281   24.8687 C   0  0  0  0  0  0  0  0  0  0  0  0
   12.1871   -7.3906   24.4112 C   0  0  0  0  0  0  0  0  0  0  0  0
   13.0417   -6.1686   24.5014 C   0  0  0  0  0  0  0  0  0  0  0  0
   14.2714   -6.2988   24.3583 O   0  0  0  0  0  0  0  0  0  0  0  0
   12.4951   -4.9341   24.7339 O   0  0  0  0  0  0  0  0  0  0  0  0
    7.5290   -5.7528   22.4598 C   0  0  0  0  0  0  0  0  0  0  0  0
    8.5724   -2.1825   21.9916 C   0  0  0  0  0  0  0  0  0  0  0  0
    9.6848   -1.3630   22.1294 C   0  0  0  0  0  0  0  0  0  0  0  0
  1  2  1  0
  2  3  2  0
  3  4  1  0
  4  5  2  0
  5  6  1  0
  6  7  2  0
  7  8  1  0
  8  9  1  0
  9 10  2  0
 10 11  1  0
 11 12  2  0
 12 13  1  0
 13 14  1  0
 14 15  1  0
 15 16  1  0
 16 17  1  0
 17 18  2  0
 17 19  1  0
 13 20  2  0
  5 21  1  0
 21 22  2  0
 22  2  1  0
 20  6  1  0
 20  9  1  0
M  END
$$$$
