
     RDKit          3D

 22 24  0  0  0  0  0  0  0  0999 V2000
   11.0916   -8.0961   25.1379 C   0  0  0  0  0  0  0  0  0  0  0  0
    9.9659   -7.5816   24.3210 C   0  0  0  0  0  0  0  0  0  0  0  0
   10.1908   -6.9322   23.1225 C   0  0  0  0  0  0  0  0  0  0  0  0
    9.1281   -6.4607   22.3730 C   0  0  0  0  0  0  0  0  0  0  0  0
    7.8250   -6.6280   22.8027 C   0  0  0  0  0  0  0  0  0  0  0  0
    6.7133   -6.0804   21.9458 C   0  0  0  0  0  0  0  0  0  0  0  0
    5.7658   -6.9863   21.4890 C   0  0  0  0  0  0  0  0  0  0  0  0
    4.6377   -6.0030   20.7067 S   0  0  0  0  0  0  0  0  0  0  0  0
    5.3568   -4.4822   20.9552 C   0  0  0  0  0  0  0  0  0  0  0  0
    5.0084   -3.2045   20.6147 N   0  0  0  0  0  0  0  0  0  0  0  0
    5.7754   -2.1593   20.9576 C   0  0  0  0  0  0  0  0  0  0  0  0
    6.8709   -2.4199   21.6284 N   0  0  0  0  0  0  0  0  0  0  0  0
    7.2674   -3.6499   21.9902 C   0  0  0  0  0  0  0  0  0  0  0  0
    8.8239   -3.7042   22.8567 S   0  0  0  0  0  0  0  0  0  0  0  0
   10.0935   -2.9894   21.7908 C   0  0  0  0  0  0  0  0  0  0  0  0
   10.2425   -1.4961   21.9121 C   0  0  0  0  0  0  0  0  0  0  0  0
   11.6381   -1.2013   22.3559 C   0  0  0  0  0  0  0  0  0  0  0  0
   12.2022   -0.1931   21.8926 O   0  0  0  0  0  0  0  0  0  0  0  0
   12.2866   -2.0128   23.2491 O   0  0  0  0  0  0  0  0  0  0  0  0
    6.4988   -4.7769   21.6627 C   0  0  0  0  0  0  0  0  0  0  0  0
    7.5808   -7.2633   23.9786 C   0  0  0  0  0  0  0  0  0  0  0  0
    8.6558   -7.7319   24.7222 C   0  0  0  0  0  0  0  0  0  0  0  0
  1  2  1  0
  2  3  2  0
  3  4  1  0
  4  5  2  0
  5  6  1  0
  6  7  2  0
  7  8  1  0
  8  9  1  0
  9 10  2  0
 10 11  1  0
 11 12  2  0
 12 13  1  0
 13 14  1  0
 14 15  1  0
 15 16  1  0
 16 17  1  0
 17 18  2  0
 17 19  1  0
 13 20  2  0
  5 21  1  0
 21 22  2  0
 22  2  1  0
 20  6  1  0
 20  9  1  0
M  END
$$$$
