
     RDKit          3D

 22 24  0  0  0  0  0  0  0  0999 V2000
   10.8282   -8.1570   25.3996 C   0  0  0  0  0  0  0  0  0  0  0  0
    9.7815   -7.6130   24.5008 C   0  0  0  0  0  0  0  0  0  0  0  0
    8.4459   -7.6545   24.8517 C   0  0  0  0  0  0  0  0  0  0  0  0
    7.4836   -7.1403   24.0014 C   0  0  0  0  0  0  0  0  0  0  0  0
    7.8341   -6.5760   22.7891 C   0  0  0  0  0  0  0  0  0  0  0  0
    6.7370   -6.0450   21.9035 C   0  0  0  0  0  0  0  0  0  0  0  0
    5.8143   -6.9645   21.4239 C   0  0  0  0  0  0  0  0  0  0  0  0
    4.6927   -5.9981   20.6118 S   0  0  0  0  0  0  0  0  0  0  0  0
    5.3838   -4.4670   20.8765 C   0  0  0  0  0  0  0  0  0  0  0  0
    5.0261   -3.1946   20.5256 N   0  0  0  0  0  0  0  0  0  0  0  0
    5.7693   -2.1384   20.8866 C   0  0  0  0  0  0  0  0  0  0  0  0
    6.8510   -2.3829   21.5855 N   0  0  0  0  0  0  0  0  0  0  0  0
    7.2554   -3.6068   21.9588 C   0  0  0  0  0  0  0  0  0  0  0  0
    8.7899   -3.6383   22.8648 S   0  0  0  0  0  0  0  0  0  0  0  0
   10.0510   -2.8064   21.8766 C   0  0  0  0  0  0  0  0  0  0  0  0
   10.2270   -1.3445   22.1911 C   0  0  0  0  0  0  0  0  0  0  0  0
   11.6416   -1.1268   22.6192 C   0  0  0  0  0  0  0  0  0  0  0  0
   12.3006   -0.2410   22.0443 O   0  0  0  0  0  0  0  0  0  0  0  0
   12.2058   -1.8766   23.6174 O   0  0  0  0  0  0  0  0  0  0  0  0
    6.5114   -4.7448   21.6133 C   0  0  0  0  0  0  0  0  0  0  0  0
    9.1417   -6.5252   22.4237 C   0  0  0  0  0  0  0  0  0  0  0  0
   10.0983   -7.0448   23.2856 C   0  0  0  0  0  0  0  0  0  0  0  0
  1  2  1  0
  2  3  2  0
  3  4  1  0
  4  5  2  0
  5  6  1  0
  6  7  2  0
  7  8  1  0
  8  9  1  0
  9 10  2  0
 10 11  1  0
 11 12  2  0
 12 13  1  0
 13 14  1  0
 14 15  1  0
 15 16  1  0
 16 17  1  0
 17 18  2  0
 17 19  1  0
 13 20  2  0
  5 21  1  0
 21 22  2  0
 22  2  1  0
 20  6  1  0
 20  9  1  0
M  END
$$$$
