
     RDKit          3D

 22 24  0  0  0  0  0  0  0  0999 V2000
   10.9923   -8.1427   25.2230 C   0  0  0  0  0  0  0  0  0  0  0  0
    9.8950   -7.5824   24.3975 C   0  0  0  0  0  0  0  0  0  0  0  0
   10.1450   -7.0309   23.1557 C   0  0  0  0  0  0  0  0  0  0  0  0
    9.1085   -6.5147   22.3989 C   0  0  0  0  0  0  0  0  0  0  0  0
    7.8071   -6.5394   22.8643 C   0  0  0  0  0  0  0  0  0  0  0  0
    6.7258   -5.9500   21.9965 C   0  0  0  0  0  0  0  0  0  0  0  0
    5.7384   -6.8153   21.5457 C   0  0  0  0  0  0  0  0  0  0  0  0
    4.6608   -5.7891   20.7475 S   0  0  0  0  0  0  0  0  0  0  0  0
    5.4498   -4.3011   20.9821 C   0  0  0  0  0  0  0  0  0  0  0  0
    5.1632   -3.0123   20.6259 N   0  0  0  0  0  0  0  0  0  0  0  0
    5.9773   -2.0005   20.9604 C   0  0  0  0  0  0  0  0  0  0  0  0
    7.0567   -2.3047   21.6389 N   0  0  0  0  0  0  0  0  0  0  0  0
    7.3935   -3.5478   22.0162 C   0  0  0  0  0  0  0  0  0  0  0  0
    8.9423   -3.6654   22.8900 S   0  0  0  0  0  0  0  0  0  0  0  0
   10.2250   -2.8948   21.8802 C   0  0  0  0  0  0  0  0  0  0  0  0
   10.3500   -1.4051   22.0592 C   0  0  0  0  0  0  0  0  0  0  0  0
   11.7352   -1.1070   22.5322 C   0  0  0  0  0  0  0  0  0  0  0  0
   12.3654   -0.1932   21.9688 O   0  0  0  0  0  0  0  0  0  0  0  0
   12.3040   -1.8145   23.5583 O   0  0  0  0  0  0  0  0  0  0  0  0
    6.5739   -4.6410   21.6979 C   0  0  0  0  0  0  0  0  0  0  0  0
    7.5387   -7.0766   24.0831 C   0  0  0  0  0  0  0  0  0  0  0  0
    8.5875   -7.5913   24.8335 C   0  0  0  0  0  0  0  0  0  0  0  0
  1  2  1  0
  2  3  2  0
  3  4  1  0
  4  5  2  0
  5  6  1  0
  6  7  2  0
  7  8  1  0
  8  9  1  0
  9 10  2  0
 10 11  1  0
 11 12  2  0
 12 13  1  0
 13 14  1  0
 14 15  1  0
 15 16  1  0
 16 17  1  0
 17 18  2  0
 17 19  1  0
 13 20  2  0
  5 21  1  0
 21 22  2  0
 22  2  1  0
 20  6  1  0
 20  9  1  0
M  END
$$$$
