
     RDKit          3D

 22 24  0  0  0  0  0  0  0  0999 V2000
    7.8660   -0.5844   20.5452 C   0  0  0  0  0  0  0  0  0  0  0  0
    7.5925   -1.9864   20.9439 C   0  0  0  0  0  0  0  0  0  0  0  0
    7.2069   -2.9319   20.0133 C   0  0  0  0  0  0  0  0  0  0  0  0
    6.9579   -4.2355   20.4034 C   0  0  0  0  0  0  0  0  0  0  0  0
    7.0891   -4.6198   21.7247 C   0  0  0  0  0  0  0  0  0  0  0  0
    6.7913   -6.0518   22.0861 C   0  0  0  0  0  0  0  0  0  0  0  0
    5.6079   -6.5909   21.6002 C   0  0  0  0  0  0  0  0  0  0  0  0
    5.6939   -8.2072   22.0816 S   0  0  0  0  0  0  0  0  0  0  0  0
    7.1952   -8.1924   22.8802 C   0  0  0  0  0  0  0  0  0  0  0  0
    7.9359   -9.1480   23.5190 N   0  0  0  0  0  0  0  0  0  0  0  0
    9.1252   -8.8565   24.0655 C   0  0  0  0  0  0  0  0  0  0  0  0
    9.5402   -7.6175   23.9615 N   0  0  0  0  0  0  0  0  0  0  0  0
    8.8599   -6.6359   23.3496 C   0  0  0  0  0  0  0  0  0  0  0  0
    9.6499   -5.0392   23.4027 S   0  0  0  0  0  0  0  0  0  0  0  0
   11.1784   -5.1922   24.3508 C   0  0  0  0  0  0  0  0  0  0  0  0
   12.4354   -5.0027   23.5440 C   0  0  0  0  0  0  0  0  0  0  0  0
   12.5412   -3.5583   23.1779 C   0  0  0  0  0  0  0  0  0  0  0  0
   13.6742   -3.0450   23.1294 O   0  0  0  0  0  0  0  0  0  0  0  0
   11.4265   -2.8115   22.9006 O   0  0  0  0  0  0  0  0  0  0  0  0
    7.6142   -6.8884   22.7557 C   0  0  0  0  0  0  0  0  0  0  0  0
    7.4665   -3.7062   22.6567 C   0  0  0  0  0  0  0  0  0  0  0  0
    7.7134   -2.4007   22.2530 C   0  0  0  0  0  0  0  0  0  0  0  0
  1  2  1  0
  2  3  2  0
  3  4  1  0
  4  5  2  0
  5  6  1  0
  6  7  2  0
  7  8  1  0
  8  9  1  0
  9 10  2  0
 10 11  1  0
 11 12  2  0
 12 13  1  0
 13 14  1  0
 14 15  1  0
 15 16  1  0
 16 17  1  0
 17 18  2  0
 17 19  1  0
 13 20  2  0
  5 21  1  0
 21 22  2  0
 22  2  1  0
 20  6  1  0
 20  9  1  0
M  END
$$$$
