
     RDKit          3D

 22 24  0  0  0  0  0  0  0  0999 V2000
   12.9645   -6.2680   25.1107 C   0  0  0  0  0  0  0  0  0  0  0  0
   11.8517   -5.6032   24.3902 C   0  0  0  0  0  0  0  0  0  0  0  0
   11.9852   -4.3195   23.8974 C   0  0  0  0  0  0  0  0  0  0  0  0
   10.9370   -3.7161   23.2261 C   0  0  0  0  0  0  0  0  0  0  0  0
    9.7398   -4.3798   23.0335 C   0  0  0  0  0  0  0  0  0  0  0  0
    8.6333   -3.6623   22.3050 C   0  0  0  0  0  0  0  0  0  0  0  0
    8.8663   -2.3405   21.9504 C   0  0  0  0  0  0  0  0  0  0  0  0
    7.4951   -1.9342   21.0527 S   0  0  0  0  0  0  0  0  0  0  0  0
    6.6505   -3.4082   21.1303 C   0  0  0  0  0  0  0  0  0  0  0  0
    5.4574   -3.8423   20.6223 N   0  0  0  0  0  0  0  0  0  0  0  0
    5.0256   -5.0942   20.8333 C   0  0  0  0  0  0  0  0  0  0  0  0
    5.7962   -5.8768   21.5486 N   0  0  0  0  0  0  0  0  0  0  0  0
    6.9749   -5.5098   22.0750 C   0  0  0  0  0  0  0  0  0  0  0  0
    7.7828   -6.7713   23.0404 S   0  0  0  0  0  0  0  0  0  0  0  0
    6.6238   -8.1347   23.2788 C   0  0  0  0  0  0  0  0  0  0  0  0
    6.7329   -9.2334   22.2551 C   0  0  0  0  0  0  0  0  0  0  0  0
    7.8752  -10.1163   22.6388 C   0  0  0  0  0  0  0  0  0  0  0  0
    7.7276  -11.3479   22.5346 O   0  0  0  0  0  0  0  0  0  0  0  0
    9.0570   -9.5931   23.0930 O   0  0  0  0  0  0  0  0  0  0  0  0
    7.4759   -4.2142   21.8789 C   0  0  0  0  0  0  0  0  0  0  0  0
    9.5865   -5.6427   23.5103 C   0  0  0  0  0  0  0  0  0  0  0  0
   10.6458   -6.2377   24.1827 C   0  0  0  0  0  0  0  0  0  0  0  0
  1  2  1  0
  2  3  2  0
  3  4  1  0
  4  5  2  0
  5  6  1  0
  6  7  2  0
  7  8  1  0
  8  9  1  0
  9 10  2  0
 10 11  1  0
 11 12  2  0
 12 13  1  0
 13 14  1  0
 14 15  1  0
 15 16  1  0
 16 17  1  0
 17 18  2  0
 17 19  1  0
 13 20  2  0
  5 21  1  0
 21 22  2  0
 22  2  1  0
 20  6  1  0
 20  9  1  0
M  END
$$$$
