
     RDKit          3D

 22 24  0  0  0  0  0  0  0  0999 V2000
   11.0306   -8.1246   25.2250 C   0  0  0  0  0  0  0  0  0  0  0  0
    9.9480   -7.5624   24.3816 C   0  0  0  0  0  0  0  0  0  0  0  0
    8.6244   -7.6448   24.7689 C   0  0  0  0  0  0  0  0  0  0  0  0
    7.6282   -7.1129   23.9701 C   0  0  0  0  0  0  0  0  0  0  0  0
    7.9321   -6.4899   22.7742 C   0  0  0  0  0  0  0  0  0  0  0  0
    6.7998   -5.9423   21.9448 C   0  0  0  0  0  0  0  0  0  0  0  0
    5.8406   -6.8478   21.5124 C   0  0  0  0  0  0  0  0  0  0  0  0
    4.6940   -5.8645   20.7577 S   0  0  0  0  0  0  0  0  0  0  0  0
    5.4200   -4.3440   20.9871 C   0  0  0  0  0  0  0  0  0  0  0  0
    5.0640   -3.0662   20.6545 N   0  0  0  0  0  0  0  0  0  0  0  0
    5.8399   -2.0213   20.9774 C   0  0  0  0  0  0  0  0  0  0  0  0
    6.9516   -2.2821   21.6209 N   0  0  0  0  0  0  0  0  0  0  0  0
    7.3562   -3.5121   21.9736 C   0  0  0  0  0  0  0  0  0  0  0  0
    8.9338   -3.5667   22.8011 S   0  0  0  0  0  0  0  0  0  0  0  0
   10.1648   -2.7939   21.7304 C   0  0  0  0  0  0  0  0  0  0  0  0
   10.2946   -1.3037   21.9023 C   0  0  0  0  0  0  0  0  0  0  0  0
   11.6923   -1.0046   22.3364 C   0  0  0  0  0  0  0  0  0  0  0  0
   12.2642   -0.0171   21.8391 O   0  0  0  0  0  0  0  0  0  0  0  0
   12.3344   -1.7898   23.2573 O   0  0  0  0  0  0  0  0  0  0  0  0
    6.5791   -4.6388   21.6661 C   0  0  0  0  0  0  0  0  0  0  0  0
    9.2271   -6.3982   22.3736 C   0  0  0  0  0  0  0  0  0  0  0  0
   10.2182   -6.9362   23.1838 C   0  0  0  0  0  0  0  0  0  0  0  0
  1  2  1  0
  2  3  2  0
  3  4  1  0
  4  5  2  0
  5  6  1  0
  6  7  2  0
  7  8  1  0
  8  9  1  0
  9 10  2  0
 10 11  1  0
 11 12  2  0
 12 13  1  0
 13 14  1  0
 14 15  1  0
 15 16  1  0
 16 17  1  0
 17 18  2  0
 17 19  1  0
 13 20  2  0
  5 21  1  0
 21 22  2  0
 22  2  1  0
 20  6  1  0
 20  9  1  0
M  END
$$$$
