
     RDKit          3D

 22 24  0  0  0  0  0  0  0  0999 V2000
   11.0909   -8.2476   25.0845 C   0  0  0  0  0  0  0  0  0  0  0  0
    9.9875   -7.6855   24.2684 C   0  0  0  0  0  0  0  0  0  0  0  0
    8.6686   -7.8302   24.6534 C   0  0  0  0  0  0  0  0  0  0  0  0
    7.6526   -7.2974   23.8804 C   0  0  0  0  0  0  0  0  0  0  0  0
    7.9318   -6.6118   22.7131 C   0  0  0  0  0  0  0  0  0  0  0  0
    6.7792   -6.0666   21.9105 C   0  0  0  0  0  0  0  0  0  0  0  0
    5.8206   -6.9768   21.4867 C   0  0  0  0  0  0  0  0  0  0  0  0
    4.6510   -5.9969   20.7634 S   0  0  0  0  0  0  0  0  0  0  0  0
    5.3670   -4.4719   20.9949 C   0  0  0  0  0  0  0  0  0  0  0  0
    4.9930   -3.1943   20.6820 N   0  0  0  0  0  0  0  0  0  0  0  0
    5.7650   -2.1453   21.0013 C   0  0  0  0  0  0  0  0  0  0  0  0
    6.8909   -2.4020   21.6214 N   0  0  0  0  0  0  0  0  0  0  0  0
    7.3134   -3.6316   21.9539 C   0  0  0  0  0  0  0  0  0  0  0  0
    8.9065   -3.6796   22.7515 S   0  0  0  0  0  0  0  0  0  0  0  0
   10.1213   -2.9386   21.6406 C   0  0  0  0  0  0  0  0  0  0  0  0
   10.3179   -1.4577   21.8285 C   0  0  0  0  0  0  0  0  0  0  0  0
   11.7257   -1.2268   22.2717 C   0  0  0  0  0  0  0  0  0  0  0  0
   12.3438   -0.2607   21.7882 O   0  0  0  0  0  0  0  0  0  0  0  0
   12.3275   -2.0507   23.1860 O   0  0  0  0  0  0  0  0  0  0  0  0
    6.5412   -4.7625   21.6493 C   0  0  0  0  0  0  0  0  0  0  0  0
    9.2218   -6.4582   22.3154 C   0  0  0  0  0  0  0  0  0  0  0  0
   10.2329   -6.9976   23.0995 C   0  0  0  0  0  0  0  0  0  0  0  0
  1  2  1  0
  2  3  2  0
  3  4  1  0
  4  5  2  0
  5  6  1  0
  6  7  2  0
  7  8  1  0
  8  9  1  0
  9 10  2  0
 10 11  1  0
 11 12  2  0
 12 13  1  0
 13 14  1  0
 14 15  1  0
 15 16  1  0
 16 17  1  0
 17 18  2  0
 17 19  1  0
 13 20  2  0
  5 21  1  0
 21 22  2  0
 22  2  1  0
 20  6  1  0
 20  9  1  0
M  END
$$$$
