
     RDKit          3D

 22 24  0  0  0  0  0  0  0  0999 V2000
   12.9109   -6.4402   25.0888 C   0  0  0  0  0  0  0  0  0  0  0  0
   11.8215   -5.6964   24.4109 C   0  0  0  0  0  0  0  0  0  0  0  0
   10.5444   -6.2169   24.3286 C   0  0  0  0  0  0  0  0  0  0  0  0
    9.5403   -5.5078   23.6941 C   0  0  0  0  0  0  0  0  0  0  0  0
    9.7900   -4.2698   23.1321 C   0  0  0  0  0  0  0  0  0  0  0  0
    8.6560   -3.5545   22.4448 C   0  0  0  0  0  0  0  0  0  0  0  0
    8.8496   -2.2141   22.1399 C   0  0  0  0  0  0  0  0  0  0  0  0
    7.4572   -1.8102   21.2742 S   0  0  0  0  0  0  0  0  0  0  0  0
    6.6530   -3.3083   21.3033 C   0  0  0  0  0  0  0  0  0  0  0  0
    5.4657   -3.7543   20.7920 N   0  0  0  0  0  0  0  0  0  0  0  0
    5.0698   -5.0246   20.9584 C   0  0  0  0  0  0  0  0  0  0  0  0
    5.8696   -5.8135   21.6338 N   0  0  0  0  0  0  0  0  0  0  0  0
    7.0444   -5.4356   22.1609 C   0  0  0  0  0  0  0  0  0  0  0  0
    7.8973   -6.7116   23.0669 S   0  0  0  0  0  0  0  0  0  0  0  0
    6.7685   -8.1029   23.2888 C   0  0  0  0  0  0  0  0  0  0  0  0
    6.9840   -9.2414   22.3274 C   0  0  0  0  0  0  0  0  0  0  0  0
    8.2336   -9.9571   22.7248 C   0  0  0  0  0  0  0  0  0  0  0  0
    8.5476  -10.9853   22.0975 O   0  0  0  0  0  0  0  0  0  0  0  0
    9.0192   -9.5003   23.7501 O   0  0  0  0  0  0  0  0  0  0  0  0
    7.5086   -4.1203   22.0104 C   0  0  0  0  0  0  0  0  0  0  0  0
   11.0388   -3.7392   23.2010 C   0  0  0  0  0  0  0  0  0  0  0  0
   12.0384   -4.4606   23.8402 C   0  0  0  0  0  0  0  0  0  0  0  0
  1  2  1  0
  2  3  2  0
  3  4  1  0
  4  5  2  0
  5  6  1  0
  6  7  2  0
  7  8  1  0
  8  9  1  0
  9 10  2  0
 10 11  1  0
 11 12  2  0
 12 13  1  0
 13 14  1  0
 14 15  1  0
 15 16  1  0
 16 17  1  0
 17 18  2  0
 17 19  1  0
 13 20  2  0
  5 21  1  0
 21 22  2  0
 22  2  1  0
 20  6  1  0
 20  9  1  0
M  END
$$$$
