
     RDKit          3D

 22 24  0  0  0  0  0  0  0  0999 V2000
   10.9174   -8.1640   25.3068 C   0  0  0  0  0  0  0  0  0  0  0  0
    9.8434   -7.6164   24.4430 C   0  0  0  0  0  0  0  0  0  0  0  0
    8.5206   -7.6486   24.8403 C   0  0  0  0  0  0  0  0  0  0  0  0
    7.5325   -7.1313   24.0221 C   0  0  0  0  0  0  0  0  0  0  0  0
    7.8439   -6.5729   22.7965 C   0  0  0  0  0  0  0  0  0  0  0  0
    6.7199   -6.0381   21.9477 C   0  0  0  0  0  0  0  0  0  0  0  0
    5.7635   -6.9496   21.5220 C   0  0  0  0  0  0  0  0  0  0  0  0
    4.6251   -5.9778   20.7403 S   0  0  0  0  0  0  0  0  0  0  0  0
    5.3511   -4.4545   20.9505 C   0  0  0  0  0  0  0  0  0  0  0  0
    4.9999   -3.1822   20.5930 N   0  0  0  0  0  0  0  0  0  0  0  0
    5.7743   -2.1328   20.9052 C   0  0  0  0  0  0  0  0  0  0  0  0
    6.8797   -2.3840   21.5632 N   0  0  0  0  0  0  0  0  0  0  0  0
    7.2794   -3.6084   21.9404 C   0  0  0  0  0  0  0  0  0  0  0  0
    8.8493   -3.6509   22.7830 S   0  0  0  0  0  0  0  0  0  0  0  0
   10.0765   -2.8343   21.7409 C   0  0  0  0  0  0  0  0  0  0  0  0
   10.1513   -1.3409   21.9173 C   0  0  0  0  0  0  0  0  0  0  0  0
   11.5426   -0.9897   22.3326 C   0  0  0  0  0  0  0  0  0  0  0  0
   12.1261   -0.0757   21.7213 O   0  0  0  0  0  0  0  0  0  0  0  0
   12.1667   -1.6498   23.3582 O   0  0  0  0  0  0  0  0  0  0  0  0
    6.5035   -4.7392   21.6450 C   0  0  0  0  0  0  0  0  0  0  0  0
    9.1383   -6.5313   22.3857 C   0  0  0  0  0  0  0  0  0  0  0  0
   10.1212   -7.0540   23.2156 C   0  0  0  0  0  0  0  0  0  0  0  0
  1  2  1  0
  2  3  2  0
  3  4  1  0
  4  5  2  0
  5  6  1  0
  6  7  2  0
  7  8  1  0
  8  9  1  0
  9 10  2  0
 10 11  1  0
 11 12  2  0
 12 13  1  0
 13 14  1  0
 14 15  1  0
 15 16  1  0
 16 17  1  0
 17 18  2  0
 17 19  1  0
 13 20  2  0
  5 21  1  0
 21 22  2  0
 22  2  1  0
 20  6  1  0
 20  9  1  0
M  END
$$$$
