
     RDKit          3D

 22 24  0  0  0  0  0  0  0  0999 V2000
   11.0324   -8.2433   25.0999 C   0  0  0  0  0  0  0  0  0  0  0  0
    9.9432   -7.6795   24.2661 C   0  0  0  0  0  0  0  0  0  0  0  0
    8.6204   -7.7877   24.6498 C   0  0  0  0  0  0  0  0  0  0  0  0
    7.6179   -7.2539   23.8602 C   0  0  0  0  0  0  0  0  0  0  0  0
    7.9147   -6.6034   22.6771 C   0  0  0  0  0  0  0  0  0  0  0  0
    6.7759   -6.0552   21.8571 C   0  0  0  0  0  0  0  0  0  0  0  0
    5.8189   -6.9621   21.4227 C   0  0  0  0  0  0  0  0  0  0  0  0
    4.6642   -5.9788   20.6804 S   0  0  0  0  0  0  0  0  0  0  0  0
    5.3842   -4.4565   20.9173 C   0  0  0  0  0  0  0  0  0  0  0  0
    5.0207   -3.1781   20.5954 N   0  0  0  0  0  0  0  0  0  0  0  0
    5.7932   -2.1319   20.9222 C   0  0  0  0  0  0  0  0  0  0  0  0
    6.9092   -2.3921   21.5587 N   0  0  0  0  0  0  0  0  0  0  0  0
    7.3212   -3.6226   21.9007 C   0  0  0  0  0  0  0  0  0  0  0  0
    8.9028   -3.6758   22.7203 S   0  0  0  0  0  0  0  0  0  0  0  0
   10.1208   -2.8701   21.6591 C   0  0  0  0  0  0  0  0  0  0  0  0
   10.2539   -1.3862   21.8761 C   0  0  0  0  0  0  0  0  0  0  0  0
   11.6680   -1.0962   22.2605 C   0  0  0  0  0  0  0  0  0  0  0  0
   12.2615   -0.1755   21.6694 O   0  0  0  0  0  0  0  0  0  0  0  0
   12.3019   -1.8186   23.2369 O   0  0  0  0  0  0  0  0  0  0  0  0
    6.5478   -4.7508   21.5887 C   0  0  0  0  0  0  0  0  0  0  0  0
    9.2088   -6.4860   22.2804 C   0  0  0  0  0  0  0  0  0  0  0  0
   10.2062   -7.0261   23.0813 C   0  0  0  0  0  0  0  0  0  0  0  0
  1  2  1  0
  2  3  2  0
  3  4  1  0
  4  5  2  0
  5  6  1  0
  6  7  2  0
  7  8  1  0
  8  9  1  0
  9 10  2  0
 10 11  1  0
 11 12  2  0
 12 13  1  0
 13 14  1  0
 14 15  1  0
 15 16  1  0
 16 17  1  0
 17 18  2  0
 17 19  1  0
 13 20  2  0
  5 21  1  0
 21 22  2  0
 22  2  1  0
 20  6  1  0
 20  9  1  0
M  END
$$$$
