
     RDKit          3D

 22 24  0  0  0  0  0  0  0  0999 V2000
   11.0533   -8.2601   25.0507 C   0  0  0  0  0  0  0  0  0  0  0  0
    9.9592   -7.6810   24.2340 C   0  0  0  0  0  0  0  0  0  0  0  0
    8.6363   -7.8283   24.6038 C   0  0  0  0  0  0  0  0  0  0  0  0
    7.6292   -7.2795   23.8305 C   0  0  0  0  0  0  0  0  0  0  0  0
    7.9215   -6.5748   22.6778 C   0  0  0  0  0  0  0  0  0  0  0  0
    6.7780   -6.0126   21.8738 C   0  0  0  0  0  0  0  0  0  0  0  0
    5.8204   -6.9125   21.4264 C   0  0  0  0  0  0  0  0  0  0  0  0
    4.6607   -5.9168   20.7086 S   0  0  0  0  0  0  0  0  0  0  0  0
    5.3796   -4.3983   20.9715 C   0  0  0  0  0  0  0  0  0  0  0  0
    5.0127   -3.1145   20.6761 N   0  0  0  0  0  0  0  0  0  0  0  0
    5.7852   -2.0735   21.0195 C   0  0  0  0  0  0  0  0  0  0  0  0
    6.9045   -2.3442   21.6456 N   0  0  0  0  0  0  0  0  0  0  0  0
    7.3199   -3.5805   21.9618 C   0  0  0  0  0  0  0  0  0  0  0  0
    8.9055   -3.6470   22.7730 S   0  0  0  0  0  0  0  0  0  0  0  0
   10.1034   -2.7608   21.7538 C   0  0  0  0  0  0  0  0  0  0  0  0
   10.2787   -1.3098   22.1153 C   0  0  0  0  0  0  0  0  0  0  0  0
   11.7226   -1.0760   22.4183 C   0  0  0  0  0  0  0  0  0  0  0  0
   12.3280   -0.2074   21.7637 O   0  0  0  0  0  0  0  0  0  0  0  0
   12.3706   -1.7929   23.3895 O   0  0  0  0  0  0  0  0  0  0  0  0
    6.5468   -4.7036   21.6318 C   0  0  0  0  0  0  0  0  0  0  0  0
    9.2156   -6.4182   22.2950 C   0  0  0  0  0  0  0  0  0  0  0  0
   10.2177   -6.9739   23.0794 C   0  0  0  0  0  0  0  0  0  0  0  0
  1  2  1  0
  2  3  2  0
  3  4  1  0
  4  5  2  0
  5  6  1  0
  6  7  2  0
  7  8  1  0
  8  9  1  0
  9 10  2  0
 10 11  1  0
 11 12  2  0
 12 13  1  0
 13 14  1  0
 14 15  1  0
 15 16  1  0
 16 17  1  0
 17 18  2  0
 17 19  1  0
 13 20  2  0
  5 21  1  0
 21 22  2  0
 22  2  1  0
 20  6  1  0
 20  9  1  0
M  END
$$$$
