
     RDKit          3D

 22 24  0  0  0  0  0  0  0  0999 V2000
   10.9388   -8.3097   25.1766 C   0  0  0  0  0  0  0  0  0  0  0  0
    9.8731   -7.7386   24.3178 C   0  0  0  0  0  0  0  0  0  0  0  0
    8.5381   -7.8909   24.6391 C   0  0  0  0  0  0  0  0  0  0  0  0
    7.5577   -7.3496   23.8270 C   0  0  0  0  0  0  0  0  0  0  0  0
    7.8892   -6.6476   22.6833 C   0  0  0  0  0  0  0  0  0  0  0  0
    6.7738   -6.0937   21.8354 C   0  0  0  0  0  0  0  0  0  0  0  0
    5.8420   -7.0008   21.3496 C   0  0  0  0  0  0  0  0  0  0  0  0
    4.7033   -6.0137   20.5878 S   0  0  0  0  0  0  0  0  0  0  0  0
    5.3986   -4.4897   20.8806 C   0  0  0  0  0  0  0  0  0  0  0  0
    5.0330   -3.2085   20.5724 N   0  0  0  0  0  0  0  0  0  0  0  0
    5.7827   -2.1617   20.9472 C   0  0  0  0  0  0  0  0  0  0  0  0
    6.8786   -2.4240   21.6166 N   0  0  0  0  0  0  0  0  0  0  0  0
    7.2915   -3.6573   21.9476 C   0  0  0  0  0  0  0  0  0  0  0  0
    8.8443   -3.7119   22.8206 S   0  0  0  0  0  0  0  0  0  0  0  0
   10.1095   -2.9551   21.7787 C   0  0  0  0  0  0  0  0  0  0  0  0
   10.2305   -1.4618   21.9283 C   0  0  0  0  0  0  0  0  0  0  0  0
   11.6209   -1.1494   22.3763 C   0  0  0  0  0  0  0  0  0  0  0  0
   12.1476   -0.0973   21.9699 O   0  0  0  0  0  0  0  0  0  0  0  0
   12.3048   -1.9919   23.2127 O   0  0  0  0  0  0  0  0  0  0  0  0
    6.5413   -4.7863   21.5860 C   0  0  0  0  0  0  0  0  0  0  0  0
    9.1959   -6.4862   22.3481 C   0  0  0  0  0  0  0  0  0  0  0  0
   10.1708   -7.0345   23.1710 C   0  0  0  0  0  0  0  0  0  0  0  0
  1  2  1  0
  2  3  2  0
  3  4  1  0
  4  5  2  0
  5  6  1  0
  6  7  2  0
  7  8  1  0
  8  9  1  0
  9 10  2  0
 10 11  1  0
 11 12  2  0
 12 13  1  0
 13 14  1  0
 14 15  1  0
 15 16  1  0
 16 17  1  0
 17 18  2  0
 17 19  1  0
 13 20  2  0
  5 21  1  0
 21 22  2  0
 22  2  1  0
 20  6  1  0
 20  9  1  0
M  END
$$$$
