
     RDKit          3D

 22 24  0  0  0  0  0  0  0  0999 V2000
   10.9931   -8.2421   25.1580 C   0  0  0  0  0  0  0  0  0  0  0  0
    9.9125   -7.6683   24.3198 C   0  0  0  0  0  0  0  0  0  0  0  0
   10.1941   -7.0422   23.1209 C   0  0  0  0  0  0  0  0  0  0  0  0
    9.1728   -6.5145   22.3514 C   0  0  0  0  0  0  0  0  0  0  0  0
    7.8555   -6.6018   22.7612 C   0  0  0  0  0  0  0  0  0  0  0  0
    6.7915   -5.9961   21.8831 C   0  0  0  0  0  0  0  0  0  0  0  0
    5.8291   -6.8576   21.3747 C   0  0  0  0  0  0  0  0  0  0  0  0
    4.7611   -5.8179   20.5811 S   0  0  0  0  0  0  0  0  0  0  0  0
    5.5231   -4.3292   20.8891 C   0  0  0  0  0  0  0  0  0  0  0  0
    5.2296   -3.0325   20.5689 N   0  0  0  0  0  0  0  0  0  0  0  0
    6.0202   -2.0229   20.9613 C   0  0  0  0  0  0  0  0  0  0  0  0
    7.0838   -2.3369   21.6600 N   0  0  0  0  0  0  0  0  0  0  0  0
    7.4262   -3.5880   22.0041 C   0  0  0  0  0  0  0  0  0  0  0  0
    8.9510   -3.7165   22.9179 S   0  0  0  0  0  0  0  0  0  0  0  0
   10.2561   -2.9151   21.9623 C   0  0  0  0  0  0  0  0  0  0  0  0
   10.2462   -1.4110   22.0305 C   0  0  0  0  0  0  0  0  0  0  0  0
   11.5897   -0.9568   22.5000 C   0  0  0  0  0  0  0  0  0  0  0  0
   12.0414    0.1109   22.0467 O   0  0  0  0  0  0  0  0  0  0  0  0
   12.3114   -1.6889   23.4055 O   0  0  0  0  0  0  0  0  0  0  0  0
    6.6308   -4.6797   21.6251 C   0  0  0  0  0  0  0  0  0  0  0  0
    7.5560   -7.2129   23.9372 C   0  0  0  0  0  0  0  0  0  0  0  0
    8.5898   -7.7384   24.7009 C   0  0  0  0  0  0  0  0  0  0  0  0
  1  2  1  0
  2  3  2  0
  3  4  1  0
  4  5  2  0
  5  6  1  0
  6  7  2  0
  7  8  1  0
  8  9  1  0
  9 10  2  0
 10 11  1  0
 11 12  2  0
 12 13  1  0
 13 14  1  0
 14 15  1  0
 15 16  1  0
 16 17  1  0
 17 18  2  0
 17 19  1  0
 13 20  2  0
  5 21  1  0
 21 22  2  0
 22  2  1  0
 20  6  1  0
 20  9  1  0
M  END
$$$$
