
     RDKit          3D

 22 24  0  0  0  0  0  0  0  0999 V2000
   10.8741   -8.2272   25.2375 C   0  0  0  0  0  0  0  0  0  0  0  0
    9.8339   -7.6419   24.3572 C   0  0  0  0  0  0  0  0  0  0  0  0
    8.5014   -7.6502   24.7222 C   0  0  0  0  0  0  0  0  0  0  0  0
    7.5452   -7.0978   23.8892 C   0  0  0  0  0  0  0  0  0  0  0  0
    7.8987   -6.5278   22.6805 C   0  0  0  0  0  0  0  0  0  0  0  0
    6.8078   -5.9543   21.8138 C   0  0  0  0  0  0  0  0  0  0  0  0
    5.8471   -6.8388   21.3431 C   0  0  0  0  0  0  0  0  0  0  0  0
    4.7479   -5.8298   20.5526 S   0  0  0  0  0  0  0  0  0  0  0  0
    5.4951   -4.3249   20.8150 C   0  0  0  0  0  0  0  0  0  0  0  0
    5.1766   -3.0390   20.4760 N   0  0  0  0  0  0  0  0  0  0  0  0
    5.9609   -2.0110   20.8315 C   0  0  0  0  0  0  0  0  0  0  0  0
    7.0435   -2.2965   21.5131 N   0  0  0  0  0  0  0  0  0  0  0  0
    7.4108   -3.5358   21.8742 C   0  0  0  0  0  0  0  0  0  0  0  0
    8.9563   -3.6252   22.7572 S   0  0  0  0  0  0  0  0  0  0  0  0
   10.2396   -2.8714   21.7356 C   0  0  0  0  0  0  0  0  0  0  0  0
   10.3929   -1.3851   21.9212 C   0  0  0  0  0  0  0  0  0  0  0  0
   11.8152   -1.1045   22.2816 C   0  0  0  0  0  0  0  0  0  0  0  0
   12.3978   -0.1732   21.6962 O   0  0  0  0  0  0  0  0  0  0  0  0
   12.4680   -1.8465   23.2304 O   0  0  0  0  0  0  0  0  0  0  0  0
    6.6231   -4.6455   21.5337 C   0  0  0  0  0  0  0  0  0  0  0  0
    9.2033   -6.5093   22.3014 C   0  0  0  0  0  0  0  0  0  0  0  0
   10.1538   -7.0671   23.1460 C   0  0  0  0  0  0  0  0  0  0  0  0
  1  2  1  0
  2  3  2  0
  3  4  1  0
  4  5  2  0
  5  6  1  0
  6  7  2  0
  7  8  1  0
  8  9  1  0
  9 10  2  0
 10 11  1  0
 11 12  2  0
 12 13  1  0
 13 14  1  0
 14 15  1  0
 15 16  1  0
 16 17  1  0
 17 18  2  0
 17 19  1  0
 13 20  2  0
  5 21  1  0
 21 22  2  0
 22  2  1  0
 20  6  1  0
 20  9  1  0
M  END
$$$$
