
     RDKit          3D

 22 24  0  0  0  0  0  0  0  0999 V2000
   11.1023   -7.9469   25.1952 C   0  0  0  0  0  0  0  0  0  0  0  0
    9.9934   -7.4207   24.3626 C   0  0  0  0  0  0  0  0  0  0  0  0
   10.2370   -6.8353   23.1352 C   0  0  0  0  0  0  0  0  0  0  0  0
    9.1898   -6.3518   22.3715 C   0  0  0  0  0  0  0  0  0  0  0  0
    7.8840   -6.4434   22.8157 C   0  0  0  0  0  0  0  0  0  0  0  0
    6.7904   -5.8866   21.9417 C   0  0  0  0  0  0  0  0  0  0  0  0
    5.8232   -6.7782   21.4984 C   0  0  0  0  0  0  0  0  0  0  0  0
    4.7235   -5.7841   20.6899 S   0  0  0  0  0  0  0  0  0  0  0  0
    5.4785   -4.2765   20.9110 C   0  0  0  0  0  0  0  0  0  0  0  0
    5.1633   -2.9979   20.5425 N   0  0  0  0  0  0  0  0  0  0  0  0
    5.9541   -1.9649   20.8680 C   0  0  0  0  0  0  0  0  0  0  0  0
    7.0395   -2.2383   21.5500 N   0  0  0  0  0  0  0  0  0  0  0  0
    7.4038   -3.4699   21.9392 C   0  0  0  0  0  0  0  0  0  0  0  0
    8.9542   -3.5444   22.8151 S   0  0  0  0  0  0  0  0  0  0  0  0
   10.2049   -2.6921   21.8311 C   0  0  0  0  0  0  0  0  0  0  0  0
   10.3134   -1.2151   22.1026 C   0  0  0  0  0  0  0  0  0  0  0  0
   11.7274   -0.9127   22.4777 C   0  0  0  0  0  0  0  0  0  0  0  0
   12.3028    0.0252   21.8957 O   0  0  0  0  0  0  0  0  0  0  0  0
   12.3806   -1.6423   23.4358 O   0  0  0  0  0  0  0  0  0  0  0  0
    6.6094   -4.5843   21.6307 C   0  0  0  0  0  0  0  0  0  0  0  0
    7.6218   -7.0148   24.0201 C   0  0  0  0  0  0  0  0  0  0  0  0
    8.6812   -7.4962   24.7776 C   0  0  0  0  0  0  0  0  0  0  0  0
  1  2  1  0
  2  3  2  0
  3  4  1  0
  4  5  2  0
  5  6  1  0
  6  7  2  0
  7  8  1  0
  8  9  1  0
  9 10  2  0
 10 11  1  0
 11 12  2  0
 12 13  1  0
 13 14  1  0
 14 15  1  0
 15 16  1  0
 16 17  1  0
 17 18  2  0
 17 19  1  0
 13 20  2  0
  5 21  1  0
 21 22  2  0
 22  2  1  0
 20  6  1  0
 20  9  1  0
M  END
$$$$
