
     RDKit          3D

 22 24  0  0  0  0  0  0  0  0999 V2000
   11.1452   -7.9700   25.1734 C   0  0  0  0  0  0  0  0  0  0  0  0
   10.0208   -7.4486   24.3590 C   0  0  0  0  0  0  0  0  0  0  0  0
   10.2438   -6.8422   23.1379 C   0  0  0  0  0  0  0  0  0  0  0  0
    9.1824   -6.3634   22.3911 C   0  0  0  0  0  0  0  0  0  0  0  0
    7.8824   -6.4808   22.8463 C   0  0  0  0  0  0  0  0  0  0  0  0
    6.7723   -5.9279   21.9907 C   0  0  0  0  0  0  0  0  0  0  0  0
    5.8017   -6.8232   21.5626 C   0  0  0  0  0  0  0  0  0  0  0  0
    4.6847   -5.8331   20.7730 S   0  0  0  0  0  0  0  0  0  0  0  0
    5.4371   -4.3225   20.9830 C   0  0  0  0  0  0  0  0  0  0  0  0
    5.1105   -3.0450   20.6207 N   0  0  0  0  0  0  0  0  0  0  0  0
    5.9022   -2.0090   20.9341 C   0  0  0  0  0  0  0  0  0  0  0  0
    6.9998   -2.2783   21.5981 N   0  0  0  0  0  0  0  0  0  0  0  0
    7.3755   -3.5087   21.9802 C   0  0  0  0  0  0  0  0  0  0  0  0
    8.9403   -3.5773   22.8305 S   0  0  0  0  0  0  0  0  0  0  0  0
   10.2096   -2.8975   21.7418 C   0  0  0  0  0  0  0  0  0  0  0  0
   10.3680   -1.4025   21.8244 C   0  0  0  0  0  0  0  0  0  0  0  0
   11.7373   -1.1067   22.3432 C   0  0  0  0  0  0  0  0  0  0  0  0
   12.3245   -0.0973   21.9120 O   0  0  0  0  0  0  0  0  0  0  0  0
   12.3376   -1.9185   23.2692 O   0  0  0  0  0  0  0  0  0  0  0  0
    6.5808   -4.6261   21.6837 C   0  0  0  0  0  0  0  0  0  0  0  0
    7.6402   -7.0732   24.0447 C   0  0  0  0  0  0  0  0  0  0  0  0
    8.7139   -7.5495   24.7852 C   0  0  0  0  0  0  0  0  0  0  0  0
  1  2  1  0
  2  3  2  0
  3  4  1  0
  4  5  2  0
  5  6  1  0
  6  7  2  0
  7  8  1  0
  8  9  1  0
  9 10  2  0
 10 11  1  0
 11 12  2  0
 12 13  1  0
 13 14  1  0
 14 15  1  0
 15 16  1  0
 16 17  1  0
 17 18  2  0
 17 19  1  0
 13 20  2  0
  5 21  1  0
 21 22  2  0
 22  2  1  0
 20  6  1  0
 20  9  1  0
M  END
$$$$
