
     RDKit          3D

 22 24  0  0  0  0  0  0  0  0999 V2000
   10.9801   -8.3143   25.2200 C   0  0  0  0  0  0  0  0  0  0  0  0
    9.8974   -7.7300   24.3919 C   0  0  0  0  0  0  0  0  0  0  0  0
    8.5774   -7.7907   24.7949 C   0  0  0  0  0  0  0  0  0  0  0  0
    7.5810   -7.2384   24.0103 C   0  0  0  0  0  0  0  0  0  0  0  0
    7.8814   -6.6163   22.8129 C   0  0  0  0  0  0  0  0  0  0  0  0
    6.7488   -6.0457   21.9994 C   0  0  0  0  0  0  0  0  0  0  0  0
    5.7572   -6.9286   21.5944 C   0  0  0  0  0  0  0  0  0  0  0  0
    4.6238   -5.9214   20.8512 S   0  0  0  0  0  0  0  0  0  0  0  0
    5.3954   -4.4193   21.0514 C   0  0  0  0  0  0  0  0  0  0  0  0
    5.0682   -3.1356   20.7124 N   0  0  0  0  0  0  0  0  0  0  0  0
    5.8785   -2.1093   21.0100 C   0  0  0  0  0  0  0  0  0  0  0  0
    6.9947   -2.3944   21.6352 N   0  0  0  0  0  0  0  0  0  0  0  0
    7.3721   -3.6316   21.9929 C   0  0  0  0  0  0  0  0  0  0  0  0
    8.9630   -3.7216   22.7911 S   0  0  0  0  0  0  0  0  0  0  0  0
   10.1994   -3.0248   21.6756 C   0  0  0  0  0  0  0  0  0  0  0  0
   10.4009   -1.5393   21.8162 C   0  0  0  0  0  0  0  0  0  0  0  0
   11.7928   -1.3018   22.3039 C   0  0  0  0  0  0  0  0  0  0  0  0
   12.4300   -0.3470   21.8224 O   0  0  0  0  0  0  0  0  0  0  0  0
   12.3600   -2.1075   23.2558 O   0  0  0  0  0  0  0  0  0  0  0  0
    6.5587   -4.7394   21.7116 C   0  0  0  0  0  0  0  0  0  0  0  0
    9.1728   -6.5457   22.3970 C   0  0  0  0  0  0  0  0  0  0  0  0
   10.1641   -7.1040   23.1932 C   0  0  0  0  0  0  0  0  0  0  0  0
  1  2  1  0
  2  3  2  0
  3  4  1  0
  4  5  2  0
  5  6  1  0
  6  7  2  0
  7  8  1  0
  8  9  1  0
  9 10  2  0
 10 11  1  0
 11 12  2  0
 12 13  1  0
 13 14  1  0
 14 15  1  0
 15 16  1  0
 16 17  1  0
 17 18  2  0
 17 19  1  0
 13 20  2  0
  5 21  1  0
 21 22  2  0
 22  2  1  0
 20  6  1  0
 20  9  1  0
M  END
$$$$
