
     RDKit          3D

 22 24  0  0  0  0  0  0  0  0999 V2000
   10.9662   -8.3726   25.1035 C   0  0  0  0  0  0  0  0  0  0  0  0
    9.8925   -7.7783   24.2708 C   0  0  0  0  0  0  0  0  0  0  0  0
    8.5642   -7.8838   24.6355 C   0  0  0  0  0  0  0  0  0  0  0  0
    7.5763   -7.3214   23.8473 C   0  0  0  0  0  0  0  0  0  0  0  0
    7.8935   -6.6446   22.6845 C   0  0  0  0  0  0  0  0  0  0  0  0
    6.7699   -6.0657   21.8645 C   0  0  0  0  0  0  0  0  0  0  0  0
    5.8025   -6.9506   21.4083 C   0  0  0  0  0  0  0  0  0  0  0  0
    4.6691   -5.9377   20.6729 S   0  0  0  0  0  0  0  0  0  0  0  0
    5.4107   -4.4308   20.9397 C   0  0  0  0  0  0  0  0  0  0  0  0
    5.0695   -3.1419   20.6355 N   0  0  0  0  0  0  0  0  0  0  0  0
    5.8556   -2.1132   20.9849 C   0  0  0  0  0  0  0  0  0  0  0  0
    6.9623   -2.4008   21.6257 N   0  0  0  0  0  0  0  0  0  0  0  0
    7.3524   -3.6429   21.9512 C   0  0  0  0  0  0  0  0  0  0  0  0
    8.9265   -3.7338   22.7821 S   0  0  0  0  0  0  0  0  0  0  0  0
   10.1783   -2.9951   21.7115 C   0  0  0  0  0  0  0  0  0  0  0  0
   10.4094   -1.5253   21.9427 C   0  0  0  0  0  0  0  0  0  0  0  0
   11.8321   -1.3366   22.3571 C   0  0  0  0  0  0  0  0  0  0  0  0
   12.4652   -0.3821   21.8698 O   0  0  0  0  0  0  0  0  0  0  0  0
   12.4314   -2.1858   23.2497 O   0  0  0  0  0  0  0  0  0  0  0  0
    6.5642   -4.7538   21.6153 C   0  0  0  0  0  0  0  0  0  0  0  0
    9.1934   -6.5293   22.3065 C   0  0  0  0  0  0  0  0  0  0  0  0
   10.1760   -7.0983   23.1059 C   0  0  0  0  0  0  0  0  0  0  0  0
  1  2  1  0
  2  3  2  0
  3  4  1  0
  4  5  2  0
  5  6  1  0
  6  7  2  0
  7  8  1  0
  8  9  1  0
  9 10  2  0
 10 11  1  0
 11 12  2  0
 12 13  1  0
 13 14  1  0
 14 15  1  0
 15 16  1  0
 16 17  1  0
 17 18  2  0
 17 19  1  0
 13 20  2  0
  5 21  1  0
 21 22  2  0
 22  2  1  0
 20  6  1  0
 20  9  1  0
M  END
$$$$
