
     RDKit          3D

 22 24  0  0  0  0  0  0  0  0999 V2000
   10.9329   -8.2500   25.2348 C   0  0  0  0  0  0  0  0  0  0  0  0
    9.8803   -7.6779   24.3606 C   0  0  0  0  0  0  0  0  0  0  0  0
    8.5449   -7.7533   24.7067 C   0  0  0  0  0  0  0  0  0  0  0  0
    7.5771   -7.2122   23.8797 C   0  0  0  0  0  0  0  0  0  0  0  0
    7.9216   -6.5870   22.6960 C   0  0  0  0  0  0  0  0  0  0  0  0
    6.8187   -6.0292   21.8343 C   0  0  0  0  0  0  0  0  0  0  0  0
    5.8782   -6.9301   21.3538 C   0  0  0  0  0  0  0  0  0  0  0  0
    4.7572   -5.9378   20.5727 S   0  0  0  0  0  0  0  0  0  0  0  0
    5.4706   -4.4194   20.8509 C   0  0  0  0  0  0  0  0  0  0  0  0
    5.1237   -3.1376   20.5246 N   0  0  0  0  0  0  0  0  0  0  0  0
    5.8847   -2.0960   20.8910 C   0  0  0  0  0  0  0  0  0  0  0  0
    6.9730   -2.3642   21.5706 N   0  0  0  0  0  0  0  0  0  0  0  0
    7.3676   -3.5986   21.9195 C   0  0  0  0  0  0  0  0  0  0  0  0
    8.9142   -3.6625   22.8028 S   0  0  0  0  0  0  0  0  0  0  0  0
   10.1710   -2.8291   21.8104 C   0  0  0  0  0  0  0  0  0  0  0  0
   10.2930   -1.3511   22.0701 C   0  0  0  0  0  0  0  0  0  0  0  0
   11.7088   -1.0593   22.4471 C   0  0  0  0  0  0  0  0  0  0  0  0
   12.2979   -0.1377   21.8530 O   0  0  0  0  0  0  0  0  0  0  0  0
   12.3487   -1.7810   23.4201 O   0  0  0  0  0  0  0  0  0  0  0  0
    6.6050   -4.7221   21.5672 C   0  0  0  0  0  0  0  0  0  0  0  0
    9.2288   -6.5020   22.3358 C   0  0  0  0  0  0  0  0  0  0  0  0
   10.1911   -7.0491   23.1741 C   0  0  0  0  0  0  0  0  0  0  0  0
  1  2  1  0
  2  3  2  0
  3  4  1  0
  4  5  2  0
  5  6  1  0
  6  7  2  0
  7  8  1  0
  8  9  1  0
  9 10  2  0
 10 11  1  0
 11 12  2  0
 12 13  1  0
 13 14  1  0
 14 15  1  0
 15 16  1  0
 16 17  1  0
 17 18  2  0
 17 19  1  0
 13 20  2  0
  5 21  1  0
 21 22  2  0
 22  2  1  0
 20  6  1  0
 20  9  1  0
M  END
$$$$
