
     RDKit          3D

 22 24  0  0  0  0  0  0  0  0999 V2000
   11.0260   -8.0507   25.2799 C   0  0  0  0  0  0  0  0  0  0  0  0
    9.9416   -7.5320   24.4112 C   0  0  0  0  0  0  0  0  0  0  0  0
    8.6177   -7.6067   24.7991 C   0  0  0  0  0  0  0  0  0  0  0  0
    7.6197   -7.1158   23.9766 C   0  0  0  0  0  0  0  0  0  0  0  0
    7.9223   -6.5422   22.7558 C   0  0  0  0  0  0  0  0  0  0  0  0
    6.7882   -6.0377   21.9018 C   0  0  0  0  0  0  0  0  0  0  0  0
    5.8360   -6.9672   21.5063 C   0  0  0  0  0  0  0  0  0  0  0  0
    4.6846   -6.0244   20.7083 S   0  0  0  0  0  0  0  0  0  0  0  0
    5.4002   -4.4907   20.8743 C   0  0  0  0  0  0  0  0  0  0  0  0
    5.0365   -3.2306   20.4870 N   0  0  0  0  0  0  0  0  0  0  0  0
    5.8049   -2.1678   20.7668 C   0  0  0  0  0  0  0  0  0  0  0  0
    6.9169   -2.3936   21.4229 N   0  0  0  0  0  0  0  0  0  0  0  0
    7.3287   -3.6048   21.8284 C   0  0  0  0  0  0  0  0  0  0  0  0
    8.9048   -3.6138   22.6605 S   0  0  0  0  0  0  0  0  0  0  0  0
   10.0753   -2.6590   21.6721 C   0  0  0  0  0  0  0  0  0  0  0  0
   10.1423   -1.1965   22.0237 C   0  0  0  0  0  0  0  0  0  0  0  0
   11.5774   -0.8284   22.2152 C   0  0  0  0  0  0  0  0  0  0  0  0
   12.1948   -1.3424   23.1661 O   0  0  0  0  0  0  0  0  0  0  0  0
   12.2051    0.0495   21.3713 O   0  0  0  0  0  0  0  0  0  0  0  0
    6.5596   -4.7487   21.5675 C   0  0  0  0  0  0  0  0  0  0  0  0
    9.2176   -6.4589   22.3542 C   0  0  0  0  0  0  0  0  0  0  0  0
   10.2104   -6.9554   23.1885 C   0  0  0  0  0  0  0  0  0  0  0  0
  1  2  1  0
  2  3  2  0
  3  4  1  0
  4  5  2  0
  5  6  1  0
  6  7  2  0
  7  8  1  0
  8  9  1  0
  9 10  2  0
 10 11  1  0
 11 12  2  0
 12 13  1  0
 13 14  1  0
 14 15  1  0
 15 16  1  0
 16 17  1  0
 17 18  2  0
 17 19  1  0
 13 20  2  0
  5 21  1  0
 21 22  2  0
 22  2  1  0
 20  6  1  0
 20  9  1  0
M  END
$$$$
