
     RDKit          3D

 22 24  0  0  0  0  0  0  0  0999 V2000
   13.5491   -5.0358   24.6106 C   0  0  0  0  0  0  0  0  0  0  0  0
   12.3075   -4.5147   23.9891 C   0  0  0  0  0  0  0  0  0  0  0  0
   11.0626   -4.9061   24.4425 C   0  0  0  0  0  0  0  0  0  0  0  0
    9.9153   -4.4080   23.8517 C   0  0  0  0  0  0  0  0  0  0  0  0
    9.9876   -3.5122   22.8014 C   0  0  0  0  0  0  0  0  0  0  0  0
    8.7009   -3.0167   22.1940 C   0  0  0  0  0  0  0  0  0  0  0  0
    8.6750   -1.6974   21.7629 C   0  0  0  0  0  0  0  0  0  0  0  0
    7.1584   -1.5595   21.0335 S   0  0  0  0  0  0  0  0  0  0  0  0
    6.5762   -3.1390   21.2741 C   0  0  0  0  0  0  0  0  0  0  0  0
    5.4155   -3.7802   20.9397 N   0  0  0  0  0  0  0  0  0  0  0  0
    5.2182   -5.0695   21.2512 C   0  0  0  0  0  0  0  0  0  0  0  0
    6.1846   -5.6816   21.8911 N   0  0  0  0  0  0  0  0  0  0  0  0
    7.3441   -5.1078   22.2480 C   0  0  0  0  0  0  0  0  0  0  0  0
    8.4538   -6.1723   23.1489 S   0  0  0  0  0  0  0  0  0  0  0  0
    7.6375   -7.7626   23.4006 C   0  0  0  0  0  0  0  0  0  0  0  0
    8.3826   -8.9432   22.8368 C   0  0  0  0  0  0  0  0  0  0  0  0
    9.7427   -8.9740   23.4538 C   0  0  0  0  0  0  0  0  0  0  0  0
   10.2995  -10.0782   23.5958 O   0  0  0  0  0  0  0  0  0  0  0  0
   10.3681   -7.8227   23.8543 O   0  0  0  0  0  0  0  0  0  0  0  0
    7.6041   -3.7639   21.9407 C   0  0  0  0  0  0  0  0  0  0  0  0
   11.2016   -3.1141   22.3391 C   0  0  0  0  0  0  0  0  0  0  0  0
   12.3459   -3.6213   22.9402 C   0  0  0  0  0  0  0  0  0  0  0  0
  1  2  1  0
  2  3  2  0
  3  4  1  0
  4  5  2  0
  5  6  1  0
  6  7  2  0
  7  8  1  0
  8  9  1  0
  9 10  2  0
 10 11  1  0
 11 12  2  0
 12 13  1  0
 13 14  1  0
 14 15  1  0
 15 16  1  0
 16 17  1  0
 17 18  2  0
 17 19  1  0
 13 20  2  0
  5 21  1  0
 21 22  2  0
 22  2  1  0
 20  6  1  0
 20  9  1  0
M  END
$$$$
