
     RDKit          3D

 22 24  0  0  0  0  0  0  0  0999 V2000
   10.8689   -8.0592   25.3610 C   0  0  0  0  0  0  0  0  0  0  0  0
    9.8190   -7.5054   24.4719 C   0  0  0  0  0  0  0  0  0  0  0  0
    8.4854   -7.5439   24.8306 C   0  0  0  0  0  0  0  0  0  0  0  0
    7.5200   -7.0207   23.9893 C   0  0  0  0  0  0  0  0  0  0  0  0
    7.8654   -6.4502   22.7785 C   0  0  0  0  0  0  0  0  0  0  0  0
    6.7650   -5.9094   21.9029 C   0  0  0  0  0  0  0  0  0  0  0  0
    5.8251   -6.8192   21.4385 C   0  0  0  0  0  0  0  0  0  0  0  0
    4.7068   -5.8424   20.6345 S   0  0  0  0  0  0  0  0  0  0  0  0
    5.4206   -4.3191   20.8835 C   0  0  0  0  0  0  0  0  0  0  0  0
    5.0753   -3.0439   20.5303 N   0  0  0  0  0  0  0  0  0  0  0  0
    5.8362   -1.9956   20.8773 C   0  0  0  0  0  0  0  0  0  0  0  0
    6.9226   -2.2506   21.5650 N   0  0  0  0  0  0  0  0  0  0  0  0
    7.3155   -3.4779   21.9399 C   0  0  0  0  0  0  0  0  0  0  0  0
    8.8598   -3.5248   22.8282 S   0  0  0  0  0  0  0  0  0  0  0  0
   10.1254   -2.7357   21.8111 C   0  0  0  0  0  0  0  0  0  0  0  0
   10.2478   -1.2481   22.0090 C   0  0  0  0  0  0  0  0  0  0  0  0
   11.6507   -0.9470   22.4245 C   0  0  0  0  0  0  0  0  0  0  0  0
   12.2402   -0.0037   21.8659 O   0  0  0  0  0  0  0  0  0  0  0  0
   12.2788   -1.6835   23.3940 O   0  0  0  0  0  0  0  0  0  0  0  0
    6.5529   -4.6079   21.6086 C   0  0  0  0  0  0  0  0  0  0  0  0
    9.1709   -6.4022   22.4055 C   0  0  0  0  0  0  0  0  0  0  0  0
   10.1307   -6.9309   23.2584 C   0  0  0  0  0  0  0  0  0  0  0  0
  1  2  1  0
  2  3  2  0
  3  4  1  0
  4  5  2  0
  5  6  1  0
  6  7  2  0
  7  8  1  0
  8  9  1  0
  9 10  2  0
 10 11  1  0
 11 12  2  0
 12 13  1  0
 13 14  1  0
 14 15  1  0
 15 16  1  0
 16 17  1  0
 17 18  2  0
 17 19  1  0
 13 20  2  0
  5 21  1  0
 21 22  2  0
 22  2  1  0
 20  6  1  0
 20  9  1  0
M  END
$$$$
