
     RDKit          3D

 22 24  0  0  0  0  0  0  0  0999 V2000
    6.2999   -0.8767   19.4923 C   0  0  0  0  0  0  0  0  0  0  0  0
    6.4384   -2.2028   20.1418 C   0  0  0  0  0  0  0  0  0  0  0  0
    6.5636   -3.3563   19.3918 C   0  0  0  0  0  0  0  0  0  0  0  0
    6.6937   -4.5843   20.0150 C   0  0  0  0  0  0  0  0  0  0  0  0
    6.7022   -4.6849   21.3937 C   0  0  0  0  0  0  0  0  0  0  0  0
    6.8349   -6.0532   22.0103 C   0  0  0  0  0  0  0  0  0  0  0  0
    5.9229   -7.0179   21.6046 C   0  0  0  0  0  0  0  0  0  0  0  0
    6.4661   -8.4142   22.3834 S   0  0  0  0  0  0  0  0  0  0  0  0
    7.8157   -7.7827   23.2029 C   0  0  0  0  0  0  0  0  0  0  0  0
    8.7603   -8.3266   24.0288 N   0  0  0  0  0  0  0  0  0  0  0  0
    9.7497   -7.5802   24.5408 C   0  0  0  0  0  0  0  0  0  0  0  0
    9.7663   -6.3104   24.2162 N   0  0  0  0  0  0  0  0  0  0  0  0
    8.8686   -5.7183   23.4134 C   0  0  0  0  0  0  0  0  0  0  0  0
    9.1158   -3.9682   23.1853 S   0  0  0  0  0  0  0  0  0  0  0  0
   10.8777   -3.6152   23.3589 C   0  0  0  0  0  0  0  0  0  0  0  0
   11.4557   -2.7650   22.2589 C   0  0  0  0  0  0  0  0  0  0  0  0
   12.7271   -2.1592   22.7571 C   0  0  0  0  0  0  0  0  0  0  0  0
   13.2950   -1.3127   22.0427 O   0  0  0  0  0  0  0  0  0  0  0  0
   13.2601   -2.5190   23.9668 O   0  0  0  0  0  0  0  0  0  0  0  0
    7.8177   -6.4545   22.8461 C   0  0  0  0  0  0  0  0  0  0  0  0
    6.5799   -3.5634   22.1507 C   0  0  0  0  0  0  0  0  0  0  0  0
    6.4496   -2.3365   21.5136 C   0  0  0  0  0  0  0  0  0  0  0  0
  1  2  1  0
  2  3  2  0
  3  4  1  0
  4  5  2  0
  5  6  1  0
  6  7  2  0
  7  8  1  0
  8  9  1  0
  9 10  2  0
 10 11  1  0
 11 12  2  0
 12 13  1  0
 13 14  1  0
 14 15  1  0
 15 16  1  0
 16 17  1  0
 17 18  2  0
 17 19  1  0
 13 20  2  0
  5 21  1  0
 21 22  2  0
 22  2  1  0
 20  6  1  0
 20  9  1  0
M  END
$$$$
