7UTW_NAI_holo_aligned_esmfold_protein
     RDKit          3D

 44 48  0  0  0  0  0  0  0  0999 V2000
   16.3236  -15.0133   -6.6878 N   0  0  0  0  0  0  0  0  0  0  0  0
   15.8449  -14.9258   -5.4065 C   0  0  0  0  0  0  0  0  0  0  0  0
   15.3379  -13.8652   -5.0803 O   0  0  0  0  0  0  0  0  0  0  0  0
   15.8199  -16.0739   -4.5130 C   0  0  0  0  0  0  0  0  0  0  0  0
   15.8343  -17.3359   -5.0533 C   0  0  0  0  0  0  0  0  0  0  0  0
   15.8074  -18.4885   -4.2741 N   0  0  0  0  0  0  0  0  0  0  0  0
   16.1948  -19.7300   -4.9536 C   0  0  2  0  0  0  0  0  0  0  0  0
   15.1522  -20.6841   -4.8370 O   0  0  0  0  0  0  0  0  0  0  0  0
   15.7044  -21.9305   -5.2315 C   0  0  2  0  0  0  0  0  0  0  0  0
   14.9530  -23.1094   -4.5616 C   0  0  0  0  0  0  0  0  0  0  0  0
   14.9217  -24.2781   -5.4030 O   0  0  0  0  0  0  0  0  0  0  0  0
   15.7277  -25.6215   -5.0322 P   0  0  2  0  0  5  0  0  0  0  0  0
   14.8000  -26.7104   -5.3467 O   0  0  0  0  0  0  0  0  0  0  0  0
   15.9813  -25.7073   -3.4713 O   0  0  0  0  0  0  0  0  0  0  0  0
   17.1144  -25.7394   -5.7590 O   0  0  0  0  0  0  0  0  0  0  0  0
   17.5070  -27.2774   -5.8242 P   0  0  1  0  0  5  0  0  0  0  0  0
   18.9266  -27.4419   -6.1092 O   0  0  0  0  0  0  0  0  0  0  0  0
   17.5038  -28.0378   -4.4504 O   0  0  0  0  0  0  0  0  0  0  0  0
   16.5700  -28.0449   -6.9154 O   0  0  0  0  0  0  0  0  0  0  0  0
   15.8401  -29.2274   -6.4950 C   0  0  0  0  0  0  0  0  0  0  0  0
   16.5112  -30.5893   -6.7585 C   0  0  1  0  0  0  0  0  0  0  0  0
   17.9341  -30.6226   -6.6581 O   0  0  0  0  0  0  0  0  0  0  0  0
   18.1725  -32.0527   -6.7518 C   0  0  1  0  0  0  0  0  0  0  0  0
   19.5754  -32.4497   -6.5698 N   0  0  0  0  0  0  0  0  0  0  0  0
   20.2135  -32.9294   -5.4251 C   0  0  0  0  0  0  0  0  0  0  0  0
   21.3092  -33.5986   -5.7205 N   0  0  0  0  0  0  0  0  0  0  0  0
   21.3786  -33.5851   -7.1202 C   0  0  0  0  0  0  0  0  0  0  0  0
   22.2070  -34.2067   -8.0723 C   0  0  0  0  0  0  0  0  0  0  0  0
   23.2699  -35.0168   -7.7474 N   0  0  0  0  0  0  0  0  0  0  0  0
   22.0050  -34.0740   -9.3842 N   0  0  0  0  0  0  0  0  0  0  0  0
   20.9823  -33.2886   -9.7957 C   0  0  0  0  0  0  0  0  0  0  0  0
   20.1639  -32.6225   -8.9516 N   0  0  0  0  0  0  0  0  0  0  0  0
   20.3535  -32.8224   -7.6380 C   0  0  0  0  0  0  0  0  0  0  0  0
   17.1542  -32.7036   -5.7840 C   0  0  2  0  0  0  0  0  0  0  0  0
   16.5464  -33.9162   -6.2473 O   0  0  0  0  0  0  0  0  0  0  0  0
   16.0971  -31.6039   -5.6905 C   0  0  2  0  0  0  0  0  0  0  0  0
   14.7216  -32.0018   -5.8456 O   0  0  0  0  0  0  0  0  0  0  0  0
   17.1773  -21.8937   -4.8090 C   0  0  1  0  0  0  0  0  0  0  0  0
   18.0845  -22.3642   -5.8274 O   0  0  0  0  0  0  0  0  0  0  0  0
   17.4087  -20.4492   -4.3558 C   0  0  1  0  0  0  0  0  0  0  0  0
   18.7162  -20.0085   -4.7322 O   0  0  0  0  0  0  0  0  0  0  0  0
   15.6023  -18.4008   -2.8911 C   0  0  0  0  0  0  0  0  0  0  0  0
   15.5845  -17.1761   -2.2646 C   0  0  0  0  0  0  0  0  0  0  0  0
   15.7352  -15.8742   -3.0181 C   0  0  0  0  0  0  0  0  0  0  0  0
  1  2  1  0
  2  3  2  0
  2  4  1  0
  4  5  2  0
  5  6  1  0
  7  6  1  1
  7  8  1  0
  8  9  1  0
  9 10  1  1
 10 11  1  0
 12 11  1  0
 12 13  2  0
 12 14  1  1
 12 15  1  0
 16 15  1  0
 16 17  2  0
 16 18  1  1
 16 19  1  0
 19 20  1  0
 21 20  1  1
 21 22  1  0
 22 23  1  0
 23 24  1  1
 24 25  1  0
 25 26  2  0
 26 27  1  0
 27 28  2  0
 28 29  1  0
 28 30  1  0
 30 31  2  0
 31 32  1  0
 32 33  2  0
 23 34  1  0
 34 35  1  6
 34 36  1  0
 36 37  1  6
  9 38  1  0
 38 39  1  6
 38 40  1  0
 40 41  1  6
  6 42  1  0
 42 43  2  0
 43 44  1  0
 44  4  1  0
 40  7  1  0
 36 21  1  0
 33 24  1  0
 33 27  1  0
M  END
