
     RDKit          3D

 44 48  0  0  0  0  0  0  0  0999 V2000
   21.0054  -11.3022  -36.8013 N   0  0  0  0  0  0  0  0  0  0  0  0
   21.2905  -10.5826  -37.9760 C   0  0  0  0  0  0  0  0  0  0  0  0
   20.3928  -10.4550  -38.8466 O   0  0  0  0  0  0  0  0  0  0  0  0
   22.5932   -9.9683  -38.2391 C   0  0  0  0  0  0  0  0  0  0  0  0
   23.5909  -10.0961  -37.4130 C   0  0  0  0  0  0  0  0  0  0  0  0
   24.8813   -9.5203  -37.6174 N   0  0  0  0  0  0  0  0  0  0  0  0
   25.9464   -9.6795  -36.6970 C   0  0  2  0  0  0  0  0  0  0  0  0
   26.1934   -8.5135  -36.0331 O   0  0  0  0  0  0  0  0  0  0  0  0
   27.4802   -8.1130  -36.2389 C   0  0  2  0  0  0  0  0  0  0  0  0
   27.6463   -6.6297  -36.4514 C   0  0  0  0  0  0  0  0  0  0  0  0
   27.5291   -6.3552  -37.7927 O   0  0  0  0  0  0  0  0  0  0  0  0
   28.4338   -5.0110  -38.2587 P   0  0  2  0  0  5  0  0  0  0  0  0
   28.1161   -3.8784  -37.2852 O   0  0  0  0  0  0  0  0  0  0  0  0
   28.0980   -4.5356  -39.8454 O   0  0  0  0  0  0  0  0  0  0  0  0
   30.0910   -5.3885  -38.1822 O   0  0  0  0  0  0  0  0  0  0  0  0
   31.0221   -3.9829  -38.0308 P   0  0  1  0  0  5  0  0  0  0  0  0
   32.0147   -3.8415  -39.1623 O   0  0  0  0  0  0  0  0  0  0  0  0
   30.0191   -2.6032  -38.0164 O   0  0  0  0  0  0  0  0  0  0  0  0
   31.8301   -4.0573  -36.5276 O   0  0  0  0  0  0  0  0  0  0  0  0
   31.1967   -3.1560  -35.6748 C   0  0  0  0  0  0  0  0  0  0  0  0
   32.2746   -2.4053  -34.9129 C   0  0  1  0  0  0  0  0  0  0  0  0
   32.8050   -3.1842  -33.8868 O   0  0  0  0  0  0  0  0  0  0  0  0
   33.9950   -2.5621  -33.6022 C   0  0  1  0  0  0  0  0  0  0  0  0
   34.8375   -3.3248  -32.7067 N   0  0  0  0  0  0  0  0  0  0  0  0
   35.5907   -4.4096  -32.9561 C   0  0  0  0  0  0  0  0  0  0  0  0
   36.2108   -4.7843  -31.8110 N   0  0  0  0  0  0  0  0  0  0  0  0
   35.8508   -3.9333  -30.8255 C   0  0  0  0  0  0  0  0  0  0  0  0
   36.2039   -3.8860  -29.4943 C   0  0  0  0  0  0  0  0  0  0  0  0
   37.0874   -4.8104  -28.8799 N   0  0  0  0  0  0  0  0  0  0  0  0
   35.6775   -2.9057  -28.7411 N   0  0  0  0  0  0  0  0  0  0  0  0
   34.8296   -2.0013  -29.2857 C   0  0  0  0  0  0  0  0  0  0  0  0
   34.4972   -2.0642  -30.5870 N   0  0  0  0  0  0  0  0  0  0  0  0
   34.9823   -3.0154  -31.4053 C   0  0  0  0  0  0  0  0  0  0  0  0
   34.6290   -2.4662  -34.9945 C   0  0  2  0  0  0  0  0  0  0  0  0
   35.5973   -1.4925  -34.9389 O   0  0  0  0  0  0  0  0  0  0  0  0
   33.4094   -2.0071  -35.7997 C   0  0  2  0  0  0  0  0  0  0  0  0
   33.5084   -0.5970  -35.8389 O   0  0  0  0  0  0  0  0  0  0  0  0
   28.0131   -8.8941  -37.4433 C   0  0  1  0  0  0  0  0  0  0  0  0
   29.3738   -9.1115  -37.3269 O   0  0  0  0  0  0  0  0  0  0  0  0
   27.2265  -10.1870  -37.2661 C   0  0  1  0  0  0  0  0  0  0  0  0
   27.8935  -10.9347  -36.2994 O   0  0  0  0  0  0  0  0  0  0  0  0
   25.0870   -8.7603  -38.7978 C   0  0  0  0  0  0  0  0  0  0  0  0
   24.0880   -8.6172  -39.6508 C   0  0  0  0  0  0  0  0  0  0  0  0
   22.7536   -9.1924  -39.4742 C   0  0  0  0  0  0  0  0  0  0  0  0
  1  2  1  0
  2  3  2  0
  2  4  1  0
  4  5  2  0
  5  6  1  0
  7  6  1  6
  7  8  1  0
  8  9  1  0
  9 10  1  6
 10 11  1  0
 11 12  1  0
 12 13  2  0
 12 14  1  6
 12 15  1  0
 15 16  1  0
 16 17  2  0
 16 18  1  1
 16 19  1  0
 19 20  1  0
 21 20  1  6
 21 22  1  0
 22 23  1  0
 23 24  1  1
 24 25  1  0
 25 26  2  0
 26 27  1  0
 27 28  2  0
 28 29  1  0
 28 30  1  0
 30 31  2  0
 31 32  1  0
 32 33  2  0
 23 34  1  0
 34 35  1  1
 34 36  1  0
 36 37  1  1
  9 38  1  0
 38 39  1  1
 38 40  1  0
 40 41  1  1
  6 42  1  0
 42 43  2  0
 43 44  1  0
 44  4  1  0
 40  7  1  0
 36 21  1  0
 33 24  1  0
 33 27  1  0
M  END
$$$$
