
     RDKit          3D

 44 48  0  0  0  0  0  0  0  0999 V2000
   20.9899  -11.1795  -36.3783 N   0  0  0  0  0  0  0  0  0  0  0  0
   21.2330  -10.6360  -37.6530 C   0  0  0  0  0  0  0  0  0  0  0  0
   20.3082  -10.6396  -38.5043 O   0  0  0  0  0  0  0  0  0  0  0  0
   22.5216  -10.0605  -38.0425 C   0  0  0  0  0  0  0  0  0  0  0  0
   23.5467  -10.0686  -37.2404 C   0  0  0  0  0  0  0  0  0  0  0  0
   24.8253   -9.5230  -37.5661 N   0  0  0  0  0  0  0  0  0  0  0  0
   25.9210   -9.5488  -36.6686 C   0  0  2  0  0  0  0  0  0  0  0  0
   26.1217   -8.3198  -36.1111 O   0  0  0  0  0  0  0  0  0  0  0  0
   27.3792   -7.8720  -36.3885 C   0  0  2  0  0  0  0  0  0  0  0  0
   27.4592   -6.4053  -36.7278 C   0  0  0  0  0  0  0  0  0  0  0  0
   28.4968   -6.2065  -37.6065 O   0  0  0  0  0  0  0  0  0  0  0  0
   28.1589   -5.0103  -38.7455 P   0  0  2  0  0  5  0  0  0  0  0  0
   26.6665   -4.6990  -38.6618 O   0  0  0  0  0  0  0  0  0  0  0  0
   28.5743   -5.4871  -40.3129 O   0  0  0  0  0  0  0  0  0  0  0  0
   29.0601   -3.6129  -38.3848 O   0  0  0  0  0  0  0  0  0  0  0  0
   30.7184   -3.9525  -38.3731 P   0  0  1  0  0  5  0  0  0  0  0  0
   30.9932   -5.4003  -38.0355 O   0  0  0  0  0  0  0  0  0  0  0  0
   31.4063   -3.6130  -39.8966 O   0  0  0  0  0  0  0  0  0  0  0  0
   31.4500   -2.9182  -37.2272 O   0  0  0  0  0  0  0  0  0  0  0  0
   31.9913   -3.7263  -36.2299 C   0  0  0  0  0  0  0  0  0  0  0  0
   32.7251   -2.8249  -35.2525 C   0  0  1  0  0  0  0  0  0  0  0  0
   33.2833   -3.5589  -34.2082 O   0  0  0  0  0  0  0  0  0  0  0  0
   34.2247   -2.7044  -33.6909 C   0  0  1  0  0  0  0  0  0  0  0  0
   35.0962   -3.3342  -32.7228 N   0  0  0  0  0  0  0  0  0  0  0  0
   36.0238   -4.2904  -32.9004 C   0  0  0  0  0  0  0  0  0  0  0  0
   36.5963   -4.5720  -31.7049 N   0  0  0  0  0  0  0  0  0  0  0  0
   36.0304   -3.7906  -30.7593 C   0  0  0  0  0  0  0  0  0  0  0  0
   36.2602   -3.6967  -29.4038 C   0  0  0  0  0  0  0  0  0  0  0  0
   37.2200   -4.4788  -28.7111 N   0  0  0  0  0  0  0  0  0  0  0  0
   35.5300   -2.8118  -28.7045 N   0  0  0  0  0  0  0  0  0  0  0  0
   34.6025   -2.0445  -29.3246 C   0  0  0  0  0  0  0  0  0  0  0  0
   34.3929   -2.1508  -30.6484 N   0  0  0  0  0  0  0  0  0  0  0  0
   35.0835   -3.0129  -31.4163 C   0  0  0  0  0  0  0  0  0  0  0  0
   35.0056   -2.3129  -34.9506 C   0  0  2  0  0  0  0  0  0  0  0  0
   35.6787   -1.1477  -34.6713 O   0  0  0  0  0  0  0  0  0  0  0  0
   33.8370   -2.0757  -35.9122 C   0  0  2  0  0  0  0  0  0  0  0  0
   33.5815   -0.6867  -35.8396 O   0  0  0  0  0  0  0  0  0  0  0  0
   27.9220   -8.7230  -37.5398 C   0  0  1  0  0  0  0  0  0  0  0  0
   29.2951   -8.8591  -37.4474 O   0  0  0  0  0  0  0  0  0  0  0  0
   27.2115  -10.0354  -37.2325 C   0  0  1  0  0  0  0  0  0  0  0  0
   27.9429  -10.6635  -36.2281 O   0  0  0  0  0  0  0  0  0  0  0  0
   24.9864   -8.9346  -38.8471 C   0  0  0  0  0  0  0  0  0  0  0  0
   23.9591   -8.9152  -39.6779 C   0  0  0  0  0  0  0  0  0  0  0  0
   22.6357   -9.4642  -39.3784 C   0  0  0  0  0  0  0  0  0  0  0  0
  1  2  1  0
  2  3  2  0
  2  4  1  0
  4  5  2  0
  5  6  1  0
  7  6  1  6
  7  8  1  0
  8  9  1  0
  9 10  1  6
 10 11  1  0
 11 12  1  0
 12 13  2  0
 12 14  1  6
 12 15  1  0
 15 16  1  0
 16 17  2  0
 16 18  1  6
 16 19  1  0
 19 20  1  0
 21 20  1  6
 21 22  1  0
 22 23  1  0
 23 24  1  1
 24 25  1  0
 25 26  2  0
 26 27  1  0
 27 28  2  0
 28 29  1  0
 28 30  1  0
 30 31  2  0
 31 32  1  0
 32 33  2  0
 23 34  1  0
 34 35  1  1
 34 36  1  0
 36 37  1  1
  9 38  1  0
 38 39  1  1
 38 40  1  0
 40 41  1  1
  6 42  1  0
 42 43  2  0
 43 44  1  0
 44  4  1  0
 40  7  1  0
 36 21  1  0
 33 24  1  0
 33 27  1  0
M  END
$$$$
