
     RDKit          3D

 44 48  0  0  0  0  0  0  0  0999 V2000
   15.8336  -15.2593   -7.5331 N   0  0  0  0  0  0  0  0  0  0  0  0
   15.5446  -15.2373   -6.1564 C   0  0  0  0  0  0  0  0  0  0  0  0
   15.2076  -14.1512   -5.6209 O   0  0  0  0  0  0  0  0  0  0  0  0
   15.6173  -16.4275   -5.3068 C   0  0  0  0  0  0  0  0  0  0  0  0
   15.9838  -17.5844   -5.7773 C   0  0  0  0  0  0  0  0  0  0  0  0
   16.0729  -18.7768   -4.9970 N   0  0  0  0  0  0  0  0  0  0  0  0
   16.4761  -20.0209   -5.5413 C   0  0  2  0  0  0  0  0  0  0  0  0
   15.5351  -20.9811   -5.3088 O   0  0  0  0  0  0  0  0  0  0  0  0
   16.0748  -22.0138   -4.6011 C   0  0  2  0  0  0  0  0  0  0  0  0
   15.1770  -22.5705   -3.5256 C   0  0  0  0  0  0  0  0  0  0  0  0
   15.0302  -23.9225   -3.7225 O   0  0  0  0  0  0  0  0  0  0  0  0
   13.5633  -24.5062   -3.1309 P   0  0  2  0  0  5  0  0  0  0  0  0
   12.5757  -24.5425   -4.2948 O   0  0  0  0  0  0  0  0  0  0  0  0
   12.9579  -23.5520   -1.8742 O   0  0  0  0  0  0  0  0  0  0  0  0
   13.7849  -26.0763   -2.5142 O   0  0  0  0  0  0  0  0  0  0  0  0
   15.2396  -26.7410   -3.0687 P   0  0  1  0  0  5  0  0  0  0  0  0
   16.0373  -25.7475   -3.8827 O   0  0  0  0  0  0  0  0  0  0  0  0
   16.1978  -27.2561   -1.7548 O   0  0  0  0  0  0  0  0  0  0  0  0
   14.8556  -28.1163   -4.0063 O   0  0  0  0  0  0  0  0  0  0  0  0
   14.6456  -27.6787   -5.3121 C   0  0  0  0  0  0  0  0  0  0  0  0
   14.4956  -28.9069   -6.1925 C   0  0  1  0  0  0  0  0  0  0  0  0
   15.5900  -29.0581   -7.0411 O   0  0  0  0  0  0  0  0  0  0  0  0
   15.5099  -30.3729   -7.4269 C   0  0  1  0  0  0  0  0  0  0  0  0
   16.6793  -30.8284   -8.1470 N   0  0  0  0  0  0  0  0  0  0  0  0
   17.9114  -31.1086   -7.6890 C   0  0  0  0  0  0  0  0  0  0  0  0
   18.6856  -31.5026   -8.7289 N   0  0  0  0  0  0  0  0  0  0  0  0
   17.9428  -31.4734   -9.8569 C   0  0  0  0  0  0  0  0  0  0  0  0
   18.2630  -31.7798  -11.1617 C   0  0  0  0  0  0  0  0  0  0  0  0
   19.5470  -32.2182  -11.5760 N   0  0  0  0  0  0  0  0  0  0  0  0
   17.2991  -31.6540  -12.0893 N   0  0  0  0  0  0  0  0  0  0  0  0
   16.0588  -31.2387  -11.7388 C   0  0  0  0  0  0  0  0  0  0  0  0
   15.7659  -30.9444  -10.4601 N   0  0  0  0  0  0  0  0  0  0  0  0
   16.6764  -31.0454   -9.4748 C   0  0  0  0  0  0  0  0  0  0  0  0
   15.3961  -31.0813   -6.0724 C   0  0  2  0  0  0  0  0  0  0  0  0
   14.8718  -32.3304   -6.3047 O   0  0  0  0  0  0  0  0  0  0  0  0
   14.3827  -30.1600   -5.3864 C   0  0  2  0  0  0  0  0  0  0  0  0
   13.1251  -30.7629   -5.6209 O   0  0  0  0  0  0  0  0  0  0  0  0
   17.3919  -21.5149   -4.0004 C   0  0  1  0  0  0  0  0  0  0  0  0
   18.3042  -22.5479   -3.8863 O   0  0  0  0  0  0  0  0  0  0  0  0
   17.8013  -20.5295   -5.0881 C   0  0  1  0  0  0  0  0  0  0  0  0
   18.3799  -21.2763   -6.1107 O   0  0  0  0  0  0  0  0  0  0  0  0
   15.7398  -18.6926   -3.6203 C   0  0  0  0  0  0  0  0  0  0  0  0
   15.3649  -17.5280   -3.1210 C   0  0  0  0  0  0  0  0  0  0  0  0
   15.2624  -16.2868   -3.8899 C   0  0  0  0  0  0  0  0  0  0  0  0
  1  2  1  0
  2  3  2  0
  2  4  1  0
  4  5  2  0
  5  6  1  0
  7  6  1  1
  7  8  1  0
  8  9  1  0
  9 10  1  1
 10 11  1  0
 11 12  1  0
 12 13  2  0
 12 14  1  1
 12 15  1  0
 15 16  1  0
 16 17  2  0
 16 18  1  1
 16 19  1  0
 19 20  1  0
 21 20  1  1
 21 22  1  0
 22 23  1  0
 23 24  1  1
 24 25  1  0
 25 26  2  0
 26 27  1  0
 27 28  2  0
 28 29  1  0
 28 30  1  0
 30 31  2  0
 31 32  1  0
 32 33  2  0
 23 34  1  0
 34 35  1  6
 34 36  1  0
 36 37  1  6
  9 38  1  0
 38 39  1  6
 38 40  1  0
 40 41  1  6
  6 42  1  0
 42 43  2  0
 43 44  1  0
 44  4  1  0
 40  7  1  0
 36 21  1  0
 33 24  1  0
 33 27  1  0
M  END
$$$$
