
     RDKit          3D

 44 48  0  0  0  0  0  0  0  0999 V2000
   15.7320  -15.4457   -7.0084 N   0  0  0  0  0  0  0  0  0  0  0  0
   15.1943  -15.5961   -5.7171 C   0  0  0  0  0  0  0  0  0  0  0  0
   14.5919  -14.6268   -5.1902 O   0  0  0  0  0  0  0  0  0  0  0  0
   15.3018  -16.8370   -4.9476 C   0  0  0  0  0  0  0  0  0  0  0  0
   15.9780  -17.8592   -5.3860 C   0  0  0  0  0  0  0  0  0  0  0  0
   16.1170  -19.0924   -4.6800 N   0  0  0  0  0  0  0  0  0  0  0  0
   16.8613  -20.1861   -5.1864 C   0  0  2  0  0  0  0  0  0  0  0  0
   16.0377  -21.1115   -5.7580 O   0  0  0  0  0  0  0  0  0  0  0  0
   16.1816  -22.3198   -5.1432 C   0  0  2  0  0  0  0  0  0  0  0  0
   14.8907  -23.0669   -4.9242 C   0  0  0  0  0  0  0  0  0  0  0  0
   15.0937  -24.0401   -3.9755 O   0  0  0  0  0  0  0  0  0  0  0  0
   13.6527  -24.5877   -3.2928 P   0  0  2  0  0  5  0  0  0  0  0  0
   12.5427  -23.6326   -3.7253 O   0  0  0  0  0  0  0  0  0  0  0  0
   13.7365  -24.6687   -1.6068 O   0  0  0  0  0  0  0  0  0  0  0  0
   13.3165  -26.1562   -3.8600 O   0  0  0  0  0  0  0  0  0  0  0  0
   14.4156  -27.2750   -3.2228 P   0  0  1  0  0  5  0  0  0  0  0  0
   15.4537  -26.6081   -2.3492 O   0  0  0  0  0  0  0  0  0  0  0  0
   13.5987  -28.4478   -2.2918 O   0  0  0  0  0  0  0  0  0  0  0  0
   15.1588  -28.0752   -4.5363 O   0  0  0  0  0  0  0  0  0  0  0  0
   14.3353  -27.8977   -5.6457 C   0  0  0  0  0  0  0  0  0  0  0  0
   14.4140  -29.1601   -6.4862 C   0  0  1  0  0  0  0  0  0  0  0  0
   15.4531  -29.0882   -7.4114 O   0  0  0  0  0  0  0  0  0  0  0  0
   15.6535  -30.3999   -7.7623 C   0  0  1  0  0  0  0  0  0  0  0  0
   16.8446  -30.6018   -8.5585 N   0  0  0  0  0  0  0  0  0  0  0  0
   18.1334  -30.6328   -8.1785 C   0  0  0  0  0  0  0  0  0  0  0  0
   18.9062  -30.8506   -9.2700 N   0  0  0  0  0  0  0  0  0  0  0  0
   18.1055  -30.9592  -10.3526 C   0  0  0  0  0  0  0  0  0  0  0  0
   18.4007  -31.1799  -11.6804 C   0  0  0  0  0  0  0  0  0  0  0  0
   19.7189  -31.3454  -12.1777 N   0  0  0  0  0  0  0  0  0  0  0  0
   17.3766  -31.2407  -12.5481 N   0  0  0  0  0  0  0  0  0  0  0  0
   16.1019  -31.0883  -12.1175 C   0  0  0  0  0  0  0  0  0  0  0  0
   15.8341  -30.8736  -10.8176 N   0  0  0  0  0  0  0  0  0  0  0  0
   16.8045  -30.7999   -9.8887 C   0  0  0  0  0  0  0  0  0  0  0  0
   15.7999  -31.0637   -6.3883 C   0  0  2  0  0  0  0  0  0  0  0  0
   15.5646  -32.4076   -6.5540 O   0  0  0  0  0  0  0  0  0  0  0  0
   14.6499  -30.3742   -5.6476 C   0  0  2  0  0  0  0  0  0  0  0  0
   13.5532  -31.2581   -5.7739 O   0  0  0  0  0  0  0  0  0  0  0  0
   16.8942  -22.0708   -3.8111 C   0  0  1  0  0  0  0  0  0  0  0  0
   17.6758  -23.1562   -3.4597 O   0  0  0  0  0  0  0  0  0  0  0  0
   17.7505  -20.8750   -4.2092 C   0  0  1  0  0  0  0  0  0  0  0  0
   18.8619  -21.3807   -4.8779 O   0  0  0  0  0  0  0  0  0  0  0  0
   15.4758  -19.2087   -3.4196 C   0  0  0  0  0  0  0  0  0  0  0  0
   14.7838  -18.1834   -2.9548 C   0  0  0  0  0  0  0  0  0  0  0  0
   14.6200  -16.9058   -3.6501 C   0  0  0  0  0  0  0  0  0  0  0  0
  1  2  1  0
  2  3  2  0
  2  4  1  0
  4  5  2  0
  5  6  1  0
  7  6  1  1
  7  8  1  0
  8  9  1  0
  9 10  1  1
 10 11  1  0
 11 12  1  0
 12 13  2  0
 12 14  1  1
 12 15  1  0
 15 16  1  0
 16 17  2  0
 16 18  1  1
 16 19  1  0
 19 20  1  0
 21 20  1  1
 21 22  1  0
 22 23  1  0
 23 24  1  6
 24 25  1  0
 25 26  2  0
 26 27  1  0
 27 28  2  0
 28 29  1  0
 28 30  1  0
 30 31  2  0
 31 32  1  0
 32 33  2  0
 23 34  1  0
 34 35  1  6
 34 36  1  0
 36 37  1  6
  9 38  1  0
 38 39  1  6
 38 40  1  0
 40 41  1  6
  6 42  1  0
 42 43  2  0
 43 44  1  0
 44  4  1  0
 40  7  1  0
 36 21  1  0
 33 24  1  0
 33 27  1  0
M  END
$$$$
