
     RDKit          3D

 44 48  0  0  0  0  0  0  0  0999 V2000
   15.8368  -14.3783   -5.7906 N   0  0  0  0  0  0  0  0  0  0  0  0
   15.4277  -14.8999   -4.5497 C   0  0  0  0  0  0  0  0  0  0  0  0
   14.9233  -14.1247   -3.6984 O   0  0  0  0  0  0  0  0  0  0  0  0
   15.5611  -16.3142   -4.1956 C   0  0  0  0  0  0  0  0  0  0  0  0
   16.1318  -17.1698   -4.9933 C   0  0  0  0  0  0  0  0  0  0  0  0
   16.2895  -18.5585   -4.7009 N   0  0  0  0  0  0  0  0  0  0  0  0
   16.9166  -19.4632   -5.5926 C   0  0  2  0  0  0  0  0  0  0  0  0
   16.0012  -20.3039   -6.1555 O   0  0  0  0  0  0  0  0  0  0  0  0
   16.3114  -21.6012   -5.8740 C   0  0  2  0  0  0  0  0  0  0  0  0
   15.1244  -22.4693   -5.5422 C   0  0  0  0  0  0  0  0  0  0  0  0
   15.5656  -23.6038   -4.9046 O   0  0  0  0  0  0  0  0  0  0  0  0
   14.4058  -24.2555   -3.8689 P   0  0  2  0  0  5  0  0  0  0  0  0
   13.2400  -24.7423   -4.7263 O   0  0  0  0  0  0  0  0  0  0  0  0
   13.8681  -23.1319   -2.7265 O   0  0  0  0  0  0  0  0  0  0  0  0
   15.0790  -25.5642   -3.0152 O   0  0  0  0  0  0  0  0  0  0  0  0
   14.5598  -27.0382   -3.6660 P   0  0  1  0  0  5  0  0  0  0  0  0
   14.8154  -28.1907   -2.7215 O   0  0  0  0  0  0  0  0  0  0  0  0
   12.8900  -26.9817   -4.0099 O   0  0  0  0  0  0  0  0  0  0  0  0
   15.3894  -27.2733   -5.1405 O   0  0  0  0  0  0  0  0  0  0  0  0
   14.4340  -27.2757   -6.1544 C   0  0  0  0  0  0  0  0  0  0  0  0
   14.3449  -28.6894   -6.7019 C   0  0  1  0  0  0  0  0  0  0  0  0
   15.4474  -28.9948   -7.4970 O   0  0  0  0  0  0  0  0  0  0  0  0
   15.4310  -30.3664   -7.5446 C   0  0  1  0  0  0  0  0  0  0  0  0
   16.6226  -30.9308   -8.1404 N   0  0  0  0  0  0  0  0  0  0  0  0
   17.8399  -31.1218   -7.6039 C   0  0  0  0  0  0  0  0  0  0  0  0
   18.6464  -31.6823   -8.5374 N   0  0  0  0  0  0  0  0  0  0  0  0
   17.9391  -31.8498   -9.6762 C   0  0  0  0  0  0  0  0  0  0  0  0
   18.2999  -32.3719  -10.8994 C   0  0  0  0  0  0  0  0  0  0  0  0
   19.5964  -32.8667  -11.1936 N   0  0  0  0  0  0  0  0  0  0  0  0
   17.3653  -32.4113  -11.8639 N   0  0  0  0  0  0  0  0  0  0  0  0
   16.1145  -31.9498  -11.6273 C   0  0  0  0  0  0  0  0  0  0  0  0
   15.7817  -31.4440  -10.4269 N   0  0  0  0  0  0  0  0  0  0  0  0
   16.6611  -31.3706   -9.4114 C   0  0  0  0  0  0  0  0  0  0  0  0
   15.3478  -30.7217   -6.0558 C   0  0  2  0  0  0  0  0  0  0  0  0
   14.8842  -32.0125   -5.9666 O   0  0  0  0  0  0  0  0  0  0  0  0
   14.2899  -29.7077   -5.6097 C   0  0  2  0  0  0  0  0  0  0  0  0
   13.0631  -30.4080   -5.6757 O   0  0  0  0  0  0  0  0  0  0  0  0
   17.3123  -21.5889   -4.7153 C   0  0  1  0  0  0  0  0  0  0  0  0
   18.1774  -22.6645   -4.7998 O   0  0  0  0  0  0  0  0  0  0  0  0
   18.0252  -20.2771   -5.0193 C   0  0  1  0  0  0  0  0  0  0  0  0
   18.9584  -20.5478   -6.0164 O   0  0  0  0  0  0  0  0  0  0  0  0
   15.7912  -19.0339   -3.4604 C   0  0  0  0  0  0  0  0  0  0  0  0
   15.2080  -18.1829   -2.6348 C   0  0  0  0  0  0  0  0  0  0  0  0
   15.0290  -16.7547   -2.9009 C   0  0  0  0  0  0  0  0  0  0  0  0
  1  2  1  0
  2  3  2  0
  2  4  1  0
  4  5  2  0
  5  6  1  0
  7  6  1  1
  7  8  1  0
  8  9  1  0
  9 10  1  1
 10 11  1  0
 11 12  1  0
 12 13  2  0
 12 14  1  1
 12 15  1  0
 15 16  1  0
 16 17  2  0
 16 18  1  6
 16 19  1  0
 19 20  1  0
 21 20  1  1
 21 22  1  0
 22 23  1  0
 23 24  1  1
 24 25  1  0
 25 26  2  0
 26 27  1  0
 27 28  2  0
 28 29  1  0
 28 30  1  0
 30 31  2  0
 31 32  1  0
 32 33  2  0
 23 34  1  0
 34 35  1  6
 34 36  1  0
 36 37  1  6
  9 38  1  0
 38 39  1  6
 38 40  1  0
 40 41  1  6
  6 42  1  0
 42 43  2  0
 43 44  1  0
 44  4  1  0
 40  7  1  0
 36 21  1  0
 33 24  1  0
 33 27  1  0
M  END
$$$$
