
     RDKit          3D

 44 48  0  0  0  0  0  0  0  0999 V2000
   19.9681  -11.2889  -37.5395 N   0  0  0  0  0  0  0  0  0  0  0  0
   21.1319  -10.9521  -36.8245 C   0  0  0  0  0  0  0  0  0  0  0  0
   21.1862  -11.2032  -35.5940 O   0  0  0  0  0  0  0  0  0  0  0  0
   22.2952  -10.3175  -37.4469 C   0  0  0  0  0  0  0  0  0  0  0  0
   23.3814  -10.0677  -36.7747 C   0  0  0  0  0  0  0  0  0  0  0  0
   24.5446   -9.4519  -37.3285 N   0  0  0  0  0  0  0  0  0  0  0  0
   25.7116   -9.1944  -36.5677 C   0  0  2  0  0  0  0  0  0  0  0  0
   25.9637   -7.8551  -36.5029 O   0  0  0  0  0  0  0  0  0  0  0  0
   27.1955   -7.5781  -37.0174 C   0  0  2  0  0  0  0  0  0  0  0  0
   27.2533   -6.3314  -37.8630 C   0  0  0  0  0  0  0  0  0  0  0  0
   28.4522   -5.6975  -37.6420 O   0  0  0  0  0  0  0  0  0  0  0  0
   28.6452   -4.3265  -38.6041 P   0  0  2  0  0  5  0  0  0  0  0  0
   27.3147   -3.5774  -38.6157 O   0  0  0  0  0  0  0  0  0  0  0  0
   29.1165   -4.7148  -40.1800 O   0  0  0  0  0  0  0  0  0  0  0  0
   29.8588   -3.3349  -37.9415 O   0  0  0  0  0  0  0  0  0  0  0  0
   31.3927   -3.9962  -38.2160 P   0  0  1  0  0  5  0  0  0  0  0  0
   31.3085   -5.3825  -38.8131 O   0  0  0  0  0  0  0  0  0  0  0  0
   32.2873   -3.0043  -39.2770 O   0  0  0  0  0  0  0  0  0  0  0  0
   32.2146   -4.0349  -36.7190 O   0  0  0  0  0  0  0  0  0  0  0  0
   31.6042   -3.0964  -35.8900 C   0  0  0  0  0  0  0  0  0  0  0  0
   32.7016   -2.3369  -35.1654 C   0  0  1  0  0  0  0  0  0  0  0  0
   33.1644   -3.0478  -34.0603 O   0  0  0  0  0  0  0  0  0  0  0  0
   34.3785   -2.4644  -33.7965 C   0  0  1  0  0  0  0  0  0  0  0  0
   35.1569   -3.1865  -32.8137 N   0  0  0  0  0  0  0  0  0  0  0  0
   35.8821   -4.3095  -32.9528 C   0  0  0  0  0  0  0  0  0  0  0  0
   36.4414   -4.6199  -31.7583 N   0  0  0  0  0  0  0  0  0  0  0  0
   36.0707   -3.6893  -30.8519 C   0  0  0  0  0  0  0  0  0  0  0  0
   36.3702   -3.5573  -29.5133 C   0  0  0  0  0  0  0  0  0  0  0  0
   37.1955   -4.4621  -28.7974 N   0  0  0  0  0  0  0  0  0  0  0  0
   35.8472   -2.5093  -28.8548 N   0  0  0  0  0  0  0  0  0  0  0  0
   35.0539   -1.6205  -29.4983 C   0  0  0  0  0  0  0  0  0  0  0  0
   34.7732   -1.7665  -30.8050 N   0  0  0  0  0  0  0  0  0  0  0  0
   35.2587   -2.7889  -31.5323 C   0  0  0  0  0  0  0  0  0  0  0  0
   35.0507   -2.5249  -35.1728 C   0  0  2  0  0  0  0  0  0  0  0  0
   36.0680   -1.6007  -35.1743 O   0  0  0  0  0  0  0  0  0  0  0  0
   33.8775   -2.0775  -36.0502 C   0  0  2  0  0  0  0  0  0  0  0  0
   34.0526   -0.6833  -36.2096 O   0  0  0  0  0  0  0  0  0  0  0  0
   27.6361   -8.8008  -37.8271 C   0  0  1  0  0  0  0  0  0  0  0  0
   29.0115   -8.9418  -37.7978 O   0  0  0  0  0  0  0  0  0  0  0  0
   26.9480   -9.8933  -37.0180 C   0  0  1  0  0  0  0  0  0  0  0  0
   27.7583  -10.1480  -35.9148 O   0  0  0  0  0  0  0  0  0  0  0  0
   24.5118   -9.0900  -38.7000 C   0  0  0  0  0  0  0  0  0  0  0  0
   23.4193   -9.3342  -39.4020 C   0  0  0  0  0  0  0  0  0  0  0  0
   22.2100   -9.9629  -38.8683 C   0  0  0  0  0  0  0  0  0  0  0  0
  1  2  1  0
  2  3  2  0
  2  4  1  0
  4  5  2  0
  5  6  1  0
  7  6  1  6
  7  8  1  0
  8  9  1  0
  9 10  1  6
 10 11  1  0
 11 12  1  0
 12 13  2  0
 12 14  1  6
 12 15  1  0
 15 16  1  0
 16 17  2  0
 16 18  1  6
 16 19  1  0
 19 20  1  0
 21 20  1  6
 21 22  1  0
 22 23  1  0
 23 24  1  1
 24 25  1  0
 25 26  2  0
 26 27  1  0
 27 28  2  0
 28 29  1  0
 28 30  1  0
 30 31  2  0
 31 32  1  0
 32 33  2  0
 23 34  1  0
 34 35  1  1
 34 36  1  0
 36 37  1  1
  9 38  1  0
 38 39  1  1
 38 40  1  0
 40 41  1  1
  6 42  1  0
 42 43  2  0
 43 44  1  0
 44  4  1  0
 40  7  1  0
 36 21  1  0
 33 24  1  0
 33 27  1  0
M  END
$$$$
