
     RDKit          3D

 44 48  0  0  0  0  0  0  0  0999 V2000
   15.7904  -14.8544   -6.5153 N   0  0  0  0  0  0  0  0  0  0  0  0
   15.2554  -15.0914   -5.2360 C   0  0  0  0  0  0  0  0  0  0  0  0
   14.6691  -14.1549   -4.6366 O   0  0  0  0  0  0  0  0  0  0  0  0
   15.3477  -16.3868   -4.5600 C   0  0  0  0  0  0  0  0  0  0  0  0
   15.9646  -17.3986   -5.0983 C   0  0  0  0  0  0  0  0  0  0  0  0
   16.0859  -18.6829   -4.4864 N   0  0  0  0  0  0  0  0  0  0  0  0
   16.7652  -19.7638   -5.1006 C   0  0  2  0  0  0  0  0  0  0  0  0
   15.9977  -20.8917   -5.0856 O   0  0  0  0  0  0  0  0  0  0  0  0
   16.6417  -21.8958   -4.4256 C   0  0  2  0  0  0  0  0  0  0  0  0
   15.7549  -22.7252   -3.5320 C   0  0  0  0  0  0  0  0  0  0  0  0
   14.6498  -23.1232   -4.2452 O   0  0  0  0  0  0  0  0  0  0  0  0
   14.0489  -24.6113   -3.7287 P   0  0  2  0  0  5  0  0  0  0  0  0
   12.9062  -24.9995   -4.6641 O   0  0  0  0  0  0  0  0  0  0  0  0
   13.5084  -24.5596   -2.1282 O   0  0  0  0  0  0  0  0  0  0  0  0
   15.2824  -25.7803   -3.8101 O   0  0  0  0  0  0  0  0  0  0  0  0
   14.7679  -27.2460   -3.1374 P   0  0  1  0  0  5  0  0  0  0  0  0
   15.4694  -27.5419   -1.8312 O   0  0  0  0  0  0  0  0  0  0  0  0
   13.0865  -27.2123   -2.8521 O   0  0  0  0  0  0  0  0  0  0  0  0
   15.0796  -28.4770   -4.2799 O   0  0  0  0  0  0  0  0  0  0  0  0
   14.5272  -28.0644   -5.4904 C   0  0  0  0  0  0  0  0  0  0  0  0
   14.4548  -29.2767   -6.4022 C   0  0  1  0  0  0  0  0  0  0  0  0
   15.5173  -29.2966   -7.3032 O   0  0  0  0  0  0  0  0  0  0  0  0
   15.5462  -30.6017   -7.7270 C   0  0  1  0  0  0  0  0  0  0  0  0
   16.7186  -30.9205   -8.5127 N   0  0  0  0  0  0  0  0  0  0  0  0
   18.0040  -31.0165   -8.1321 C   0  0  0  0  0  0  0  0  0  0  0  0
   18.7570  -31.3386   -9.2116 N   0  0  0  0  0  0  0  0  0  0  0  0
   17.9469  -31.4486  -10.2871 C   0  0  0  0  0  0  0  0  0  0  0  0
   18.2222  -31.7542  -11.6023 C   0  0  0  0  0  0  0  0  0  0  0  0
   19.5250  -32.0301  -12.0913 N   0  0  0  0  0  0  0  0  0  0  0  0
   17.1931  -31.7913  -12.4654 N   0  0  0  0  0  0  0  0  0  0  0  0
   15.9327  -31.5347  -12.0425 C   0  0  0  0  0  0  0  0  0  0  0  0
   15.6842  -31.2383  -10.7549 N   0  0  0  0  0  0  0  0  0  0  0  0
   16.6608  -31.1818   -9.8313 C   0  0  0  0  0  0  0  0  0  0  0  0
   15.5657  -31.3550   -6.3922 C   0  0  2  0  0  0  0  0  0  0  0  0
   15.1540  -32.6425   -6.6409 O   0  0  0  0  0  0  0  0  0  0  0  0
   14.5018  -30.5566   -5.6326 C   0  0  2  0  0  0  0  0  0  0  0  0
   13.2985  -31.2730   -5.8300 O   0  0  0  0  0  0  0  0  0  0  0  0
   17.7751  -21.2566   -3.6187 C   0  0  1  0  0  0  0  0  0  0  0  0
   18.8449  -22.1247   -3.4983 O   0  0  0  0  0  0  0  0  0  0  0  0
   18.1070  -20.0901   -4.5410 C   0  0  1  0  0  0  0  0  0  0  0  0
   18.9159  -20.5961   -5.5549 O   0  0  0  0  0  0  0  0  0  0  0  0
   15.4952  -18.8655   -3.2093 C   0  0  0  0  0  0  0  0  0  0  0  0
   14.8638  -17.8518   -2.6437 C   0  0  0  0  0  0  0  0  0  0  0  0
   14.7198  -16.5232   -3.2407 C   0  0  0  0  0  0  0  0  0  0  0  0
  1  2  1  0
  2  3  2  0
  2  4  1  0
  4  5  2  0
  5  6  1  0
  7  6  1  1
  7  8  1  0
  8  9  1  0
  9 10  1  1
 10 11  1  0
 11 12  1  0
 12 13  2  0
 12 14  1  1
 12 15  1  0
 15 16  1  0
 16 17  2  0
 16 18  1  1
 16 19  1  0
 19 20  1  0
 21 20  1  1
 21 22  1  0
 22 23  1  0
 23 24  1  6
 24 25  1  0
 25 26  2  0
 26 27  1  0
 27 28  2  0
 28 29  1  0
 28 30  1  0
 30 31  2  0
 31 32  1  0
 32 33  2  0
 23 34  1  0
 34 35  1  6
 34 36  1  0
 36 37  1  6
  9 38  1  0
 38 39  1  6
 38 40  1  0
 40 41  1  6
  6 42  1  0
 42 43  2  0
 43 44  1  0
 44  4  1  0
 40  7  1  0
 36 21  1  0
 33 24  1  0
 33 27  1  0
M  END
$$$$
