
     RDKit          3D

 44 48  0  0  0  0  0  0  0  0999 V2000
   16.2362  -16.0380   -8.0371 N   0  0  0  0  0  0  0  0  0  0  0  0
   15.8424  -15.9681   -6.6883 C   0  0  0  0  0  0  0  0  0  0  0  0
   15.4197  -14.8758   -6.2318 O   0  0  0  0  0  0  0  0  0  0  0  0
   15.9006  -17.1146   -5.7797 C   0  0  0  0  0  0  0  0  0  0  0  0
   16.3921  -18.2607   -6.1526 C   0  0  0  0  0  0  0  0  0  0  0  0
   16.4741  -19.4111   -5.3110 N   0  0  0  0  0  0  0  0  0  0  0  0
   17.0159  -20.6446   -5.7492 C   0  0  2  0  0  0  0  0  0  0  0  0
   16.0238  -21.5253   -6.0678 O   0  0  0  0  0  0  0  0  0  0  0  0
   16.1293  -22.6540   -5.3104 C   0  0  2  0  0  0  0  0  0  0  0  0
   14.8136  -23.2005   -4.8174 C   0  0  0  0  0  0  0  0  0  0  0  0
   15.0586  -24.1988   -3.9055 O   0  0  0  0  0  0  0  0  0  0  0  0
   13.7322  -24.5055   -2.9110 P   0  0  2  0  0  5  0  0  0  0  0  0
   12.6361  -23.5086   -3.2799 O   0  0  0  0  0  0  0  0  0  0  0  0
   14.1209  -24.3737   -1.2715 O   0  0  0  0  0  0  0  0  0  0  0  0
   13.1800  -26.0929   -3.1755 O   0  0  0  0  0  0  0  0  0  0  0  0
   14.3886  -27.2197   -2.8074 P   0  0  1  0  0  5  0  0  0  0  0  0
   15.4778  -26.6158   -1.9503 O   0  0  0  0  0  0  0  0  0  0  0  0
   13.7254  -28.5542   -1.9774 O   0  0  0  0  0  0  0  0  0  0  0  0
   15.0313  -27.7895   -4.2839 O   0  0  0  0  0  0  0  0  0  0  0  0
   13.9858  -27.8182   -5.2041 C   0  0  0  0  0  0  0  0  0  0  0  0
   14.1854  -29.0336   -6.0924 C   0  0  1  0  0  0  0  0  0  0  0  0
   15.1696  -28.8037   -7.0512 O   0  0  0  0  0  0  0  0  0  0  0  0
   15.5156  -30.0685   -7.4568 C   0  0  1  0  0  0  0  0  0  0  0  0
   16.6895  -30.0953   -8.3023 N   0  0  0  0  0  0  0  0  0  0  0  0
   17.9897  -30.0955   -7.9621 C   0  0  0  0  0  0  0  0  0  0  0  0
   18.7374  -30.1263   -9.0917 N   0  0  0  0  0  0  0  0  0  0  0  0
   17.9090  -30.1458  -10.1587 C   0  0  0  0  0  0  0  0  0  0  0  0
   18.1725  -30.1787  -11.5109 C   0  0  0  0  0  0  0  0  0  0  0  0
   19.4810  -30.1995  -12.0586 N   0  0  0  0  0  0  0  0  0  0  0  0
   17.1256  -30.1917  -12.3529 N   0  0  0  0  0  0  0  0  0  0  0  0
   15.8591  -30.1728  -11.8743 C   0  0  0  0  0  0  0  0  0  0  0  0
   15.6224  -30.1407  -10.5512 N   0  0  0  0  0  0  0  0  0  0  0  0
   16.6171  -30.1259   -9.6454 C   0  0  0  0  0  0  0  0  0  0  0  0
   15.7978  -30.7522   -6.1141 C   0  0  2  0  0  0  0  0  0  0  0  0
   15.7231  -32.1090   -6.3202 O   0  0  0  0  0  0  0  0  0  0  0  0
   14.6025  -30.2349   -5.3078 C   0  0  2  0  0  0  0  0  0  0  0  0
   13.6187  -31.2439   -5.4267 O   0  0  0  0  0  0  0  0  0  0  0  0
   17.0536  -22.3282   -4.1340 C   0  0  1  0  0  0  0  0  0  0  0  0
   17.7599  -23.4489   -3.7370 O   0  0  0  0  0  0  0  0  0  0  0  0
   17.9625  -21.3088   -4.8096 C   0  0  1  0  0  0  0  0  0  0  0  0
   18.9031  -22.0300   -5.5400 O   0  0  0  0  0  0  0  0  0  0  0  0
   15.9880  -19.2951   -3.9830 C   0  0  0  0  0  0  0  0  0  0  0  0
   15.4846  -18.1408   -3.5828 C   0  0  0  0  0  0  0  0  0  0  0  0
   15.3846  -16.9422   -4.4169 C   0  0  0  0  0  0  0  0  0  0  0  0
  1  2  1  0
  2  3  2  0
  2  4  1  0
  4  5  2  0
  5  6  1  0
  7  6  1  1
  7  8  1  0
  8  9  1  0
  9 10  1  1
 10 11  1  0
 11 12  1  0
 12 13  2  0
 12 14  1  1
 12 15  1  0
 15 16  1  0
 16 17  2  0
 16 18  1  1
 16 19  1  0
 19 20  1  0
 21 20  1  1
 21 22  1  0
 22 23  1  0
 23 24  1  6
 24 25  1  0
 25 26  2  0
 26 27  1  0
 27 28  2  0
 28 29  1  0
 28 30  1  0
 30 31  2  0
 31 32  1  0
 32 33  2  0
 23 34  1  0
 34 35  1  6
 34 36  1  0
 36 37  1  6
  9 38  1  0
 38 39  1  6
 38 40  1  0
 40 41  1  6
  6 42  1  0
 42 43  2  0
 43 44  1  0
 44  4  1  0
 40  7  1  0
 36 21  1  0
 33 24  1  0
 33 27  1  0
M  END
$$$$
