
     RDKit          3D

 44 48  0  0  0  0  0  0  0  0999 V2000
   21.4919  -10.9254  -35.5863 N   0  0  0  0  0  0  0  0  0  0  0  0
   21.5237  -10.3830  -36.8840 C   0  0  0  0  0  0  0  0  0  0  0  0
   20.4721  -10.3858  -37.5725 O   0  0  0  0  0  0  0  0  0  0  0  0
   22.7319   -9.8095  -37.4796 C   0  0  0  0  0  0  0  0  0  0  0  0
   23.8790   -9.8376  -36.8652 C   0  0  0  0  0  0  0  0  0  0  0  0
   25.0880   -9.2950  -37.3966 N   0  0  0  0  0  0  0  0  0  0  0  0
   26.3209   -9.3429  -36.7005 C   0  0  2  0  0  0  0  0  0  0  0  0
   26.6522   -8.1122  -36.2136 O   0  0  0  0  0  0  0  0  0  0  0  0
   27.8560   -7.7120  -36.7130 C   0  0  2  0  0  0  0  0  0  0  0  0
   27.9209   -6.2547  -37.0938 C   0  0  0  0  0  0  0  0  0  0  0  0
   28.2517   -6.1554  -38.4238 O   0  0  0  0  0  0  0  0  0  0  0  0
   28.3220   -4.5567  -38.9545 P   0  0  2  0  0  5  0  0  0  0  0  0
   26.9271   -3.9553  -38.7998 O   0  0  0  0  0  0  0  0  0  0  0  0
   28.8391   -4.4401  -40.5593 O   0  0  0  0  0  0  0  0  0  0  0  0
   29.4321   -3.6903  -37.9996 O   0  0  0  0  0  0  0  0  0  0  0  0
   30.9544   -3.6445  -38.7386 P   0  0  1  0  0  5  0  0  0  0  0  0
   31.4050   -5.0175  -39.1829 O   0  0  0  0  0  0  0  0  0  0  0  0
   30.9241   -2.6186  -40.1010 O   0  0  0  0  0  0  0  0  0  0  0  0
   32.0564   -2.9850  -37.6122 O   0  0  0  0  0  0  0  0  0  0  0  0
   31.6613   -3.4175  -36.3483 C   0  0  0  0  0  0  0  0  0  0  0  0
   32.4543   -2.6285  -35.3212 C   0  0  1  0  0  0  0  0  0  0  0  0
   32.9085   -3.4504  -34.2921 O   0  0  0  0  0  0  0  0  0  0  0  0
   33.9157   -2.7129  -33.7216 C   0  0  1  0  0  0  0  0  0  0  0  0
   34.6939   -3.4600  -32.7573 N   0  0  0  0  0  0  0  0  0  0  0  0
   35.5933   -4.4386  -32.9567 C   0  0  0  0  0  0  0  0  0  0  0  0
   36.0716   -4.8446  -31.7557 N   0  0  0  0  0  0  0  0  0  0  0  0
   35.4737   -4.1205  -30.7845 C   0  0  0  0  0  0  0  0  0  0  0  0
   35.6143   -4.1507  -29.4140 C   0  0  0  0  0  0  0  0  0  0  0  0
   36.4933   -5.0302  -28.7311 N   0  0  0  0  0  0  0  0  0  0  0  0
   34.8735   -3.2955  -28.6894 N   0  0  0  0  0  0  0  0  0  0  0  0
   34.0212   -2.4381  -29.2993 C   0  0  0  0  0  0  0  0  0  0  0  0
   33.8981   -2.4238  -30.6380 N   0  0  0  0  0  0  0  0  0  0  0  0
   34.6050   -3.2488  -31.4315 C   0  0  0  0  0  0  0  0  0  0  0  0
   34.7653   -2.3583  -34.9472 C   0  0  2  0  0  0  0  0  0  0  0  0
   35.5429   -1.2767  -34.6092 O   0  0  0  0  0  0  0  0  0  0  0  0
   33.6524   -1.9721  -35.9264 C   0  0  2  0  0  0  0  0  0  0  0  0
   33.5341   -0.5678  -35.8082 O   0  0  0  0  0  0  0  0  0  0  0  0
   28.1657   -8.6002  -37.9211 C   0  0  1  0  0  0  0  0  0  0  0  0
   29.5294   -8.7812  -38.0631 O   0  0  0  0  0  0  0  0  0  0  0  0
   27.4792   -9.8824  -37.4668 C   0  0  1  0  0  0  0  0  0  0  0  0
   28.3535  -10.5179  -36.5894 O   0  0  0  0  0  0  0  0  0  0  0  0
   25.0330   -8.6866  -38.6772 C   0  0  0  0  0  0  0  0  0  0  0  0
   23.8789   -8.6467  -39.3195 C   0  0  0  0  0  0  0  0  0  0  0  0
   22.6212   -9.1919  -38.8061 C   0  0  0  0  0  0  0  0  0  0  0  0
  1  2  1  0
  2  3  2  0
  2  4  1  0
  4  5  2  0
  5  6  1  0
  7  6  1  6
  7  8  1  0
  8  9  1  0
  9 10  1  6
 10 11  1  0
 11 12  1  0
 12 13  2  0
 12 14  1  6
 12 15  1  0
 15 16  1  0
 16 17  2  0
 16 18  1  6
 16 19  1  0
 19 20  1  0
 21 20  1  6
 21 22  1  0
 22 23  1  0
 23 24  1  1
 24 25  1  0
 25 26  2  0
 26 27  1  0
 27 28  2  0
 28 29  1  0
 28 30  1  0
 30 31  2  0
 31 32  1  0
 32 33  2  0
 23 34  1  0
 34 35  1  1
 34 36  1  0
 36 37  1  1
  9 38  1  0
 38 39  1  1
 38 40  1  0
 40 41  1  1
  6 42  1  0
 42 43  2  0
 43 44  1  0
 44  4  1  0
 40  7  1  0
 36 21  1  0
 33 24  1  0
 33 27  1  0
M  END
$$$$
