
     RDKit          3D

 44 48  0  0  0  0  0  0  0  0999 V2000
   16.2992  -14.8155   -6.7471 N   0  0  0  0  0  0  0  0  0  0  0  0
   15.8459  -14.9397   -5.4211 C   0  0  0  0  0  0  0  0  0  0  0  0
   15.4414  -13.9148   -4.8160 O   0  0  0  0  0  0  0  0  0  0  0  0
   15.8210  -16.2150   -4.7025 C   0  0  0  0  0  0  0  0  0  0  0  0
   16.2411  -17.3187   -5.2499 C   0  0  0  0  0  0  0  0  0  0  0  0
   16.2405  -18.5890   -4.5981 N   0  0  0  0  0  0  0  0  0  0  0  0
   16.7058  -19.7719   -5.2235 C   0  0  2  0  0  0  0  0  0  0  0  0
   15.7309  -20.7261   -5.2449 O   0  0  0  0  0  0  0  0  0  0  0  0
   16.1508  -21.8489   -4.5956 C   0  0  2  0  0  0  0  0  0  0  0  0
   15.1000  -22.5022   -3.7344 C   0  0  0  0  0  0  0  0  0  0  0  0
   14.8746  -23.7770   -4.1952 O   0  0  0  0  0  0  0  0  0  0  0  0
   13.6715  -24.5755   -3.3249 P   0  0  2  0  0  5  0  0  0  0  0  0
   12.3969  -23.7406   -3.4232 O   0  0  0  0  0  0  0  0  0  0  0  0
   14.1017  -24.8057   -1.7068 O   0  0  0  0  0  0  0  0  0  0  0  0
   13.4067  -26.1133   -4.0032 O   0  0  0  0  0  0  0  0  0  0  0  0
   14.3347  -27.2877   -3.2125 P   0  0  1  0  0  5  0  0  0  0  0  0
   15.7059  -26.7673   -2.8454 O   0  0  0  0  0  0  0  0  0  0  0  0
   13.5531  -27.8034   -1.7867 O   0  0  0  0  0  0  0  0  0  0  0  0
   14.4618  -28.6347   -4.2552 O   0  0  0  0  0  0  0  0  0  0  0  0
   14.3438  -28.1584   -5.5590 C   0  0  0  0  0  0  0  0  0  0  0  0
   14.2890  -29.3597   -6.4865 C   0  0  1  0  0  0  0  0  0  0  0  0
   15.3348  -29.3369   -7.4066 O   0  0  0  0  0  0  0  0  0  0  0  0
   15.3929  -30.6348   -7.8494 C   0  0  1  0  0  0  0  0  0  0  0  0
   16.5593  -30.9092   -8.6604 N   0  0  0  0  0  0  0  0  0  0  0  0
   17.8529  -30.9811   -8.3030 C   0  0  0  0  0  0  0  0  0  0  0  0
   18.5951  -31.2633   -9.4010 N   0  0  0  0  0  0  0  0  0  0  0  0
   17.7698  -31.3719  -10.4650 C   0  0  0  0  0  0  0  0  0  0  0  0
   18.0302  -31.6447  -11.7905 C   0  0  0  0  0  0  0  0  0  0  0  0
   19.3308  -31.8788  -12.3062 N   0  0  0  0  0  0  0  0  0  0  0  0
   16.9879  -31.6899  -12.6371 N   0  0  0  0  0  0  0  0  0  0  0  0
   15.7289  -31.4726  -12.1886 C   0  0  0  0  0  0  0  0  0  0  0  0
   15.4951  -31.2079  -10.8913 N   0  0  0  0  0  0  0  0  0  0  0  0
   16.4856  -31.1457   -9.9829 C   0  0  0  0  0  0  0  0  0  0  0  0
   15.4583  -31.4054   -6.5259 C   0  0  2  0  0  0  0  0  0  0  0  0
   15.0787  -32.7006   -6.7853 O   0  0  0  0  0  0  0  0  0  0  0  0
   14.3863  -30.6482   -5.7361 C   0  0  2  0  0  0  0  0  0  0  0  0
   13.2004  -31.3959   -5.9220 O   0  0  0  0  0  0  0  0  0  0  0  0
   17.3713  -21.4602   -3.7568 C   0  0  1  0  0  0  0  0  0  0  0  0
   18.2464  -22.5244   -3.6371 O   0  0  0  0  0  0  0  0  0  0  0  0
   17.9453  -20.3664   -4.6489 C   0  0  1  0  0  0  0  0  0  0  0  0
   18.6590  -21.0045   -5.6596 O   0  0  0  0  0  0  0  0  0  0  0  0
   15.7499  -18.6497   -3.2681 C   0  0  0  0  0  0  0  0  0  0  0  0
   15.3182  -17.5414   -2.6924 C   0  0  0  0  0  0  0  0  0  0  0  0
   15.3040  -16.2236   -3.3292 C   0  0  0  0  0  0  0  0  0  0  0  0
  1  2  1  0
  2  3  2  0
  2  4  1  0
  4  5  2  0
  5  6  1  0
  7  6  1  1
  7  8  1  0
  8  9  1  0
  9 10  1  1
 10 11  1  0
 11 12  1  0
 12 13  2  0
 12 14  1  1
 12 15  1  0
 15 16  1  0
 16 17  2  0
 16 18  1  1
 16 19  1  0
 19 20  1  0
 21 20  1  1
 21 22  1  0
 22 23  1  0
 23 24  1  6
 24 25  1  0
 25 26  2  0
 26 27  1  0
 27 28  2  0
 28 29  1  0
 28 30  1  0
 30 31  2  0
 31 32  1  0
 32 33  2  0
 23 34  1  0
 34 35  1  6
 34 36  1  0
 36 37  1  6
  9 38  1  0
 38 39  1  6
 38 40  1  0
 40 41  1  6
  6 42  1  0
 42 43  2  0
 43 44  1  0
 44  4  1  0
 40  7  1  0
 36 21  1  0
 33 24  1  0
 33 27  1  0
M  END
$$$$
