
     RDKit          3D

 44 48  0  0  0  0  0  0  0  0999 V2000
   15.6260  -15.1533   -7.1166 N   0  0  0  0  0  0  0  0  0  0  0  0
   14.9275  -15.3963   -5.9198 C   0  0  0  0  0  0  0  0  0  0  0  0
   14.1580  -14.5092   -5.4715 O   0  0  0  0  0  0  0  0  0  0  0  0
   15.0526  -16.6426   -5.1619 C   0  0  0  0  0  0  0  0  0  0  0  0
   15.9055  -17.5667   -5.4978 C   0  0  0  0  0  0  0  0  0  0  0  0
   16.0709  -18.7997   -4.7971 N   0  0  0  0  0  0  0  0  0  0  0  0
   17.0101  -19.7848   -5.1900 C   0  0  2  0  0  0  0  0  0  0  0  0
   16.3921  -20.8148   -5.8371 O   0  0  0  0  0  0  0  0  0  0  0  0
   16.6210  -21.9905   -5.1860 C   0  0  2  0  0  0  0  0  0  0  0  0
   15.4244  -22.9041   -5.1073 C   0  0  0  0  0  0  0  0  0  0  0  0
   14.8931  -22.8356   -3.8420 O   0  0  0  0  0  0  0  0  0  0  0  0
   14.0912  -24.2514   -3.4002 P   0  0  2  0  0  5  0  0  0  0  0  0
   12.7230  -24.2397   -4.0778 O   0  0  0  0  0  0  0  0  0  0  0  0
   13.9178  -24.3894   -1.7247 O   0  0  0  0  0  0  0  0  0  0  0  0
   14.9852  -25.5985   -3.9304 O   0  0  0  0  0  0  0  0  0  0  0  0
   14.6345  -26.9615   -2.9897 P   0  0  1  0  0  5  0  0  0  0  0  0
   15.6194  -27.1299   -1.8551 O   0  0  0  0  0  0  0  0  0  0  0  0
   13.0659  -26.8420   -2.3302 O   0  0  0  0  0  0  0  0  0  0  0  0
   14.6657  -28.3232   -4.0206 O   0  0  0  0  0  0  0  0  0  0  0  0
   14.5870  -27.8509   -5.3288 C   0  0  0  0  0  0  0  0  0  0  0  0
   14.4627  -29.0537   -6.2474 C   0  0  1  0  0  0  0  0  0  0  0  0
   15.5563  -29.1508   -7.1051 O   0  0  0  0  0  0  0  0  0  0  0  0
   15.5065  -30.4541   -7.5326 C   0  0  1  0  0  0  0  0  0  0  0  0
   16.6831  -30.8574   -8.2718 N   0  0  0  0  0  0  0  0  0  0  0  0
   17.9434  -31.0398   -7.8419 C   0  0  0  0  0  0  0  0  0  0  0  0
   18.7128  -31.4190   -8.8908 N   0  0  0  0  0  0  0  0  0  0  0  0
   17.9385  -31.4789   -9.9963 C   0  0  0  0  0  0  0  0  0  0  0  0
   18.2418  -31.8101  -11.2990 C   0  0  0  0  0  0  0  0  0  0  0  0
   19.5401  -32.1779  -11.7369 N   0  0  0  0  0  0  0  0  0  0  0  0
   17.2462  -31.7808  -12.2008 N   0  0  0  0  0  0  0  0  0  0  0  0
   15.9914  -31.4355  -11.8273 C   0  0  0  0  0  0  0  0  0  0  0  0
   15.7152  -31.1155  -10.5510 N   0  0  0  0  0  0  0  0  0  0  0  0
   16.6576  -31.1214   -9.5908 C   0  0  0  0  0  0  0  0  0  0  0  0
   15.4169  -31.2080   -6.2009 C   0  0  2  0  0  0  0  0  0  0  0  0
   14.9222  -32.4616   -6.4709 O   0  0  0  0  0  0  0  0  0  0  0  0
   14.3846  -30.3344   -5.4815 C   0  0  2  0  0  0  0  0  0  0  0  0
   13.1410  -30.9603   -5.7299 O   0  0  0  0  0  0  0  0  0  0  0  0
   17.1283  -21.6431   -3.7838 C   0  0  1  0  0  0  0  0  0  0  0  0
   17.9998  -22.6120   -3.3208 O   0  0  0  0  0  0  0  0  0  0  0  0
   17.8590  -20.3441   -4.1007 C   0  0  1  0  0  0  0  0  0  0  0  0
   19.1004  -20.6976   -4.6226 O   0  0  0  0  0  0  0  0  0  0  0  0
   15.2515  -19.0303   -3.6620 C   0  0  0  0  0  0  0  0  0  0  0  0
   14.3784  -18.1059   -3.3026 C   0  0  0  0  0  0  0  0  0  0  0  0
   14.1818  -16.8319   -3.9961 C   0  0  0  0  0  0  0  0  0  0  0  0
  1  2  1  0
  2  3  2  0
  2  4  1  0
  4  5  2  0
  5  6  1  0
  7  6  1  1
  7  8  1  0
  8  9  1  0
  9 10  1  1
 10 11  1  0
 11 12  1  0
 12 13  2  0
 12 14  1  1
 12 15  1  0
 15 16  1  0
 16 17  2  0
 16 18  1  1
 16 19  1  0
 19 20  1  0
 21 20  1  1
 21 22  1  0
 22 23  1  0
 23 24  1  1
 24 25  1  0
 25 26  2  0
 26 27  1  0
 27 28  2  0
 28 29  1  0
 28 30  1  0
 30 31  2  0
 31 32  1  0
 32 33  2  0
 23 34  1  0
 34 35  1  6
 34 36  1  0
 36 37  1  6
  9 38  1  0
 38 39  1  6
 38 40  1  0
 40 41  1  6
  6 42  1  0
 42 43  2  0
 43 44  1  0
 44  4  1  0
 40  7  1  0
 36 21  1  0
 33 24  1  0
 33 27  1  0
M  END
$$$$
