
     RDKit          3D

 44 48  0  0  0  0  0  0  0  0999 V2000
   16.3202  -15.6681   -7.6375 N   0  0  0  0  0  0  0  0  0  0  0  0
   15.7291  -15.6676   -6.3610 C   0  0  0  0  0  0  0  0  0  0  0  0
   15.1665  -14.6215   -5.9494 O   0  0  0  0  0  0  0  0  0  0  0  0
   15.7358  -16.8354   -5.4780 C   0  0  0  0  0  0  0  0  0  0  0  0
   16.2958  -17.9569   -5.8287 C   0  0  0  0  0  0  0  0  0  0  0  0
   16.3328  -19.1262   -5.0103 N   0  0  0  0  0  0  0  0  0  0  0  0
   16.9517  -20.3318   -5.4231 C   0  0  2  0  0  0  0  0  0  0  0  0
   16.1225  -21.3968   -5.2239 O   0  0  0  0  0  0  0  0  0  0  0  0
   16.7086  -22.3066   -4.3949 C   0  0  2  0  0  0  0  0  0  0  0  0
   15.7757  -22.9209   -3.3825 C   0  0  0  0  0  0  0  0  0  0  0  0
   14.8568  -23.7035   -4.0394 O   0  0  0  0  0  0  0  0  0  0  0  0
   13.6955  -24.3469   -3.0003 P   0  0  2  0  0  5  0  0  0  0  0  0
   12.4565  -23.4584   -3.0830 O   0  0  0  0  0  0  0  0  0  0  0  0
   14.2483  -24.4400   -1.4059 O   0  0  0  0  0  0  0  0  0  0  0  0
   13.3051  -25.9273   -3.4950 O   0  0  0  0  0  0  0  0  0  0  0  0
   14.4013  -27.0466   -2.8539 P   0  0  1  0  0  5  0  0  0  0  0  0
   15.7855  -26.4568   -2.7068 O   0  0  0  0  0  0  0  0  0  0  0  0
   13.8769  -27.5828   -1.3218 O   0  0  0  0  0  0  0  0  0  0  0  0
   14.4310  -28.3979   -3.8985 O   0  0  0  0  0  0  0  0  0  0  0  0
   14.5735  -27.9118   -5.1962 C   0  0  0  0  0  0  0  0  0  0  0  0
   14.4720  -29.0927   -6.1456 C   0  0  1  0  0  0  0  0  0  0  0  0
   15.5098  -29.0858   -7.0749 O   0  0  0  0  0  0  0  0  0  0  0  0
   15.5222  -30.3762   -7.5427 C   0  0  1  0  0  0  0  0  0  0  0  0
   16.6719  -30.6721   -8.3697 N   0  0  0  0  0  0  0  0  0  0  0  0
   17.9465  -30.9046   -8.0124 C   0  0  0  0  0  0  0  0  0  0  0  0
   18.6783  -31.1372   -9.1288 N   0  0  0  0  0  0  0  0  0  0  0  0
   17.8656  -31.0526  -10.2046 C   0  0  0  0  0  0  0  0  0  0  0  0
   18.1227  -31.2058  -11.5497 C   0  0  0  0  0  0  0  0  0  0  0  0
   19.4046  -31.5063  -12.0778 N   0  0  0  0  0  0  0  0  0  0  0  0
   17.0959  -31.0610  -12.4041 N   0  0  0  0  0  0  0  0  0  0  0  0
   15.8551  -30.7741  -11.9443 C   0  0  0  0  0  0  0  0  0  0  0  0
   15.6242  -30.6284  -10.6278 N   0  0  0  0  0  0  0  0  0  0  0  0
   16.5998  -30.7581   -9.7105 C   0  0  0  0  0  0  0  0  0  0  0  0
   15.5745  -31.1736   -6.2346 C   0  0  2  0  0  0  0  0  0  0  0  0
   15.1511  -32.4508   -6.5149 O   0  0  0  0  0  0  0  0  0  0  0  0
   14.5344  -30.3978   -5.4205 C   0  0  2  0  0  0  0  0  0  0  0  0
   13.3235  -31.1035   -5.6093 O   0  0  0  0  0  0  0  0  0  0  0  0
   17.8747  -21.6015   -3.6968 C   0  0  1  0  0  0  0  0  0  0  0  0
   18.8943  -22.4933   -3.4181 O   0  0  0  0  0  0  0  0  0  0  0  0
   18.2724  -20.6302   -4.8013 C   0  0  1  0  0  0  0  0  0  0  0  0
   19.0533  -21.3459   -5.7048 O   0  0  0  0  0  0  0  0  0  0  0  0
   15.7189  -19.0590   -3.7328 C   0  0  0  0  0  0  0  0  0  0  0  0
   15.1443  -17.9304   -3.3558 C   0  0  0  0  0  0  0  0  0  0  0  0
   15.0872  -16.7136   -4.1674 C   0  0  0  0  0  0  0  0  0  0  0  0
  1  2  1  0
  2  3  2  0
  2  4  1  0
  4  5  2  0
  5  6  1  0
  7  6  1  1
  7  8  1  0
  8  9  1  0
  9 10  1  1
 10 11  1  0
 11 12  1  0
 12 13  2  0
 12 14  1  1
 12 15  1  0
 15 16  1  0
 16 17  2  0
 16 18  1  1
 16 19  1  0
 19 20  1  0
 21 20  1  1
 21 22  1  0
 22 23  1  0
 23 24  1  6
 24 25  1  0
 25 26  2  0
 26 27  1  0
 27 28  2  0
 28 29  1  0
 28 30  1  0
 30 31  2  0
 31 32  1  0
 32 33  2  0
 23 34  1  0
 34 35  1  6
 34 36  1  0
 36 37  1  6
  9 38  1  0
 38 39  1  6
 38 40  1  0
 40 41  1  6
  6 42  1  0
 42 43  2  0
 43 44  1  0
 44  4  1  0
 40  7  1  0
 36 21  1  0
 33 24  1  0
 33 27  1  0
M  END
$$$$
