
     RDKit          3D

 44 48  0  0  0  0  0  0  0  0999 V2000
   21.3109  -11.0654  -36.2329 N   0  0  0  0  0  0  0  0  0  0  0  0
   21.5806  -10.5850  -37.5273 C   0  0  0  0  0  0  0  0  0  0  0  0
   20.6944  -10.6866  -38.4129 O   0  0  0  0  0  0  0  0  0  0  0  0
   22.8543   -9.9663  -37.8995 C   0  0  0  0  0  0  0  0  0  0  0  0
   23.8485   -9.8875  -37.0631 C   0  0  0  0  0  0  0  0  0  0  0  0
   25.1112   -9.2962  -37.3704 N   0  0  0  0  0  0  0  0  0  0  0  0
   26.1734   -9.2272  -36.4355 C   0  0  2  0  0  0  0  0  0  0  0  0
   26.3900   -7.9394  -36.0402 O   0  0  0  0  0  0  0  0  0  0  0  0
   27.6690   -7.5636  -36.3258 C   0  0  2  0  0  0  0  0  0  0  0  0
   27.8037   -6.1584  -36.8550 C   0  0  0  0  0  0  0  0  0  0  0  0
   28.0095   -6.2107  -38.2126 O   0  0  0  0  0  0  0  0  0  0  0  0
   28.2023   -4.6817  -38.8964 P   0  0  2  0  0  5  0  0  0  0  0  0
   26.8243   -4.0277  -38.9649 O   0  0  0  0  0  0  0  0  0  0  0  0
   28.8970   -4.7547  -40.4354 O   0  0  0  0  0  0  0  0  0  0  0  0
   29.2347   -3.7487  -37.9175 O   0  0  0  0  0  0  0  0  0  0  0  0
   30.8380   -3.8695  -38.4473 P   0  0  1  0  0  5  0  0  0  0  0  0
   31.0629   -5.1116  -39.2793 O   0  0  0  0  0  0  0  0  0  0  0  0
   31.2593   -2.5078  -39.3844 O   0  0  0  0  0  0  0  0  0  0  0  0
   31.8401   -3.8823  -37.0640 O   0  0  0  0  0  0  0  0  0  0  0  0
   31.1764   -3.1692  -36.0683 C   0  0  0  0  0  0  0  0  0  0  0  0
   32.2262   -2.4665  -35.2255 C   0  0  1  0  0  0  0  0  0  0  0  0
   32.6096   -3.2490  -34.1385 O   0  0  0  0  0  0  0  0  0  0  0  0
   33.8061   -2.6944  -33.7578 C   0  0  1  0  0  0  0  0  0  0  0  0
   34.5126   -3.4835  -32.7721 N   0  0  0  0  0  0  0  0  0  0  0  0
   35.2887   -4.5679  -32.9399 C   0  0  0  0  0  0  0  0  0  0  0  0
   35.7418   -4.9732  -31.7289 N   0  0  0  0  0  0  0  0  0  0  0  0
   35.2518   -4.1423  -30.7832 C   0  0  0  0  0  0  0  0  0  0  0  0
   35.4164   -4.1280  -29.4151 C   0  0  0  0  0  0  0  0  0  0  0  0
   36.2019   -5.0727  -28.7059 N   0  0  0  0  0  0  0  0  0  0  0  0
   34.7944   -3.1613  -28.7195 N   0  0  0  0  0  0  0  0  0  0  0  0
   34.0343   -2.2385  -29.3552 C   0  0  0  0  0  0  0  0  0  0  0  0
   33.8859   -2.2692  -30.6911 N   0  0  0  0  0  0  0  0  0  0  0  0
   34.4762   -3.2050  -31.4563 C   0  0  0  0  0  0  0  0  0  0  0  0
   34.5695   -2.6754  -35.0869 C   0  0  2  0  0  0  0  0  0  0  0  0
   35.5891   -1.7623  -34.9621 O   0  0  0  0  0  0  0  0  0  0  0  0
   33.4605   -2.1634  -36.0113 C   0  0  2  0  0  0  0  0  0  0  0  0
   33.6529   -0.7636  -36.0707 O   0  0  0  0  0  0  0  0  0  0  0  0
   28.2271   -8.5750  -37.3307 C   0  0  1  0  0  0  0  0  0  0  0  0
   29.5915   -8.7305  -37.1675 O   0  0  0  0  0  0  0  0  0  0  0  0
   27.4682   -9.8164  -36.8784 C   0  0  1  0  0  0  0  0  0  0  0  0
   28.1450  -10.3208  -35.7713 O   0  0  0  0  0  0  0  0  0  0  0  0
   25.2915   -8.7607  -38.6719 C   0  0  0  0  0  0  0  0  0  0  0  0
   24.2956   -8.8297  -39.5376 C   0  0  0  0  0  0  0  0  0  0  0  0
   22.9892   -9.4277  -39.2578 C   0  0  0  0  0  0  0  0  0  0  0  0
  1  2  1  0
  2  3  2  0
  2  4  1  0
  4  5  2  0
  5  6  1  0
  7  6  1  6
  7  8  1  0
  8  9  1  0
  9 10  1  6
 10 11  1  0
 11 12  1  0
 12 13  2  0
 12 14  1  6
 12 15  1  0
 15 16  1  0
 16 17  2  0
 16 18  1  6
 16 19  1  0
 19 20  1  0
 21 20  1  6
 21 22  1  0
 22 23  1  0
 23 24  1  1
 24 25  1  0
 25 26  2  0
 26 27  1  0
 27 28  2  0
 28 29  1  0
 28 30  1  0
 30 31  2  0
 31 32  1  0
 32 33  2  0
 23 34  1  0
 34 35  1  1
 34 36  1  0
 36 37  1  1
  9 38  1  0
 38 39  1  1
 38 40  1  0
 40 41  1  1
  6 42  1  0
 42 43  2  0
 43 44  1  0
 44  4  1  0
 40  7  1  0
 36 21  1  0
 33 24  1  0
 33 27  1  0
M  END
$$$$
