
     RDKit          3D

 44 48  0  0  0  0  0  0  0  0999 V2000
   16.5258  -15.0337   -6.4568 N   0  0  0  0  0  0  0  0  0  0  0  0
   15.8856  -15.3375   -5.2415 C   0  0  0  0  0  0  0  0  0  0  0  0
   15.2836  -14.4233   -4.6236 O   0  0  0  0  0  0  0  0  0  0  0  0
   15.8847  -16.6784   -4.6535 C   0  0  0  0  0  0  0  0  0  0  0  0
   16.5086  -17.6734   -5.2145 C   0  0  0  0  0  0  0  0  0  0  0  0
   16.5420  -18.9999   -4.6874 N   0  0  0  0  0  0  0  0  0  0  0  0
   17.2318  -20.0609   -5.3242 C   0  0  2  0  0  0  0  0  0  0  0  0
   16.3549  -20.9612   -5.8551 O   0  0  0  0  0  0  0  0  0  0  0  0
   16.5636  -22.1986   -5.3222 C   0  0  2  0  0  0  0  0  0  0  0  0
   15.3034  -22.9650   -5.0103 C   0  0  0  0  0  0  0  0  0  0  0  0
   15.2334  -23.1759   -3.6543 O   0  0  0  0  0  0  0  0  0  0  0  0
   13.8450  -24.0187   -3.2022 P   0  0  2  0  0  5  0  0  0  0  0  0
   12.6470  -23.1051   -3.4500 O   0  0  0  0  0  0  0  0  0  0  0  0
   13.8919  -24.5028   -1.5836 O   0  0  0  0  0  0  0  0  0  0  0  0
   13.7021  -25.4255   -4.1484 O   0  0  0  0  0  0  0  0  0  0  0  0
   14.0501  -26.8054   -3.2316 P   0  0  1  0  0  5  0  0  0  0  0  0
   15.4470  -26.7597   -2.6552 O   0  0  0  0  0  0  0  0  0  0  0  0
   12.9399  -26.9614   -1.9460 O   0  0  0  0  0  0  0  0  0  0  0  0
   13.8640  -28.1637   -4.2506 O   0  0  0  0  0  0  0  0  0  0  0  0
   14.7508  -28.0056   -5.3133 C   0  0  0  0  0  0  0  0  0  0  0  0
   14.5728  -29.1924   -6.2439 C   0  0  1  0  0  0  0  0  0  0  0  0
   15.5889  -29.2462   -7.1956 O   0  0  0  0  0  0  0  0  0  0  0  0
   15.5304  -30.5415   -7.6457 C   0  0  1  0  0  0  0  0  0  0  0  0
   16.6462  -30.9018   -8.4934 N   0  0  0  0  0  0  0  0  0  0  0  0
   17.9331  -31.1150   -8.1700 C   0  0  0  0  0  0  0  0  0  0  0  0
   18.6204  -31.4306   -9.2943 N   0  0  0  0  0  0  0  0  0  0  0  0
   17.7665  -31.4185  -10.3411 C   0  0  0  0  0  0  0  0  0  0  0  0
   17.9706  -31.6686  -11.6808 C   0  0  0  0  0  0  0  0  0  0  0  0
   19.2302  -32.0127  -12.2353 N   0  0  0  0  0  0  0  0  0  0  0  0
   16.9117  -31.5796  -12.5031 N   0  0  0  0  0  0  0  0  0  0  0  0
   15.6905  -31.2540  -12.0172 C   0  0  0  0  0  0  0  0  0  0  0  0
   15.5114  -31.0135  -10.7066 N   0  0  0  0  0  0  0  0  0  0  0  0
   16.5217  -31.0827   -9.8208 C   0  0  0  0  0  0  0  0  0  0  0  0
   15.5744  -31.3239   -6.3283 C   0  0  2  0  0  0  0  0  0  0  0  0
   15.0855  -32.5832   -6.5818 O   0  0  0  0  0  0  0  0  0  0  0  0
   14.5902  -30.4896   -5.5026 C   0  0  2  0  0  0  0  0  0  0  0  0
   13.3437  -31.1398   -5.6553 O   0  0  0  0  0  0  0  0  0  0  0  0
   17.4097  -22.0137   -4.0595 C   0  0  1  0  0  0  0  0  0  0  0  0
   18.2251  -23.1103   -3.8476 O   0  0  0  0  0  0  0  0  0  0  0  0
   18.2183  -20.7931   -4.4811 C   0  0  1  0  0  0  0  0  0  0  0  0
   19.2554  -21.2558   -5.2864 O   0  0  0  0  0  0  0  0  0  0  0  0
   15.8496  -19.2469   -3.4738 C   0  0  0  0  0  0  0  0  0  0  0  0
   15.2092  -18.2514   -2.8866 C   0  0  0  0  0  0  0  0  0  0  0  0
   15.1536  -16.8808   -3.3974 C   0  0  0  0  0  0  0  0  0  0  0  0
  1  2  1  0
  2  3  2  0
  2  4  1  0
  4  5  2  0
  5  6  1  0
  7  6  1  1
  7  8  1  0
  8  9  1  0
  9 10  1  1
 10 11  1  0
 11 12  1  0
 12 13  2  0
 12 14  1  1
 12 15  1  0
 15 16  1  0
 16 17  2  0
 16 18  1  1
 16 19  1  0
 19 20  1  0
 21 20  1  1
 21 22  1  0
 22 23  1  0
 23 24  1  6
 24 25  1  0
 25 26  2  0
 26 27  1  0
 27 28  2  0
 28 29  1  0
 28 30  1  0
 30 31  2  0
 31 32  1  0
 32 33  2  0
 23 34  1  0
 34 35  1  6
 34 36  1  0
 36 37  1  6
  9 38  1  0
 38 39  1  6
 38 40  1  0
 40 41  1  6
  6 42  1  0
 42 43  2  0
 43 44  1  0
 44  4  1  0
 40  7  1  0
 36 21  1  0
 33 24  1  0
 33 27  1  0
M  END
$$$$
