
     RDKit          3D

 44 48  0  0  0  0  0  0  0  0999 V2000
   21.1694  -11.2334  -36.6162 N   0  0  0  0  0  0  0  0  0  0  0  0
   21.3897  -10.5422  -37.8215 C   0  0  0  0  0  0  0  0  0  0  0  0
   20.4272  -10.3712  -38.6116 O   0  0  0  0  0  0  0  0  0  0  0  0
   22.6966  -10.0062  -38.2065 C   0  0  0  0  0  0  0  0  0  0  0  0
   23.7533  -10.1782  -37.4663 C   0  0  0  0  0  0  0  0  0  0  0  0
   25.0510   -9.6791  -37.7910 N   0  0  0  0  0  0  0  0  0  0  0  0
   26.1812   -9.8849  -36.9621 C   0  0  2  0  0  0  0  0  0  0  0  0
   26.4534   -8.7691  -36.2256 O   0  0  0  0  0  0  0  0  0  0  0  0
   27.7150   -8.3234  -36.4870 C   0  0  2  0  0  0  0  0  0  0  0  0
   27.8388   -6.8246  -36.5910 C   0  0  0  0  0  0  0  0  0  0  0  0
   28.1090   -6.4886  -37.8957 O   0  0  0  0  0  0  0  0  0  0  0  0
   29.6883   -5.9378  -38.1075 P   0  0  2  0  0  5  0  0  0  0  0  0
   30.4683   -7.0336  -38.8300 O   0  0  0  0  0  0  0  0  0  0  0  0
   30.4323   -5.5555  -36.6389 O   0  0  0  0  0  0  0  0  0  0  0  0
   29.6736   -4.5227  -39.0521 O   0  0  0  0  0  0  0  0  0  0  0  0
   30.1140   -3.1761  -38.1257 P   0  0  1  0  0  5  0  0  0  0  0  0
   30.4943   -1.9974  -38.9928 O   0  0  0  0  0  0  0  0  0  0  0  0
   28.8271   -2.7062  -37.1094 O   0  0  0  0  0  0  0  0  0  0  0  0
   31.4234   -3.6385  -37.1310 O   0  0  0  0  0  0  0  0  0  0  0  0
   30.9537   -3.6687  -35.8199 C   0  0  0  0  0  0  0  0  0  0  0  0
   31.8441   -2.7615  -34.9891 C   0  0  1  0  0  0  0  0  0  0  0  0
   32.4109   -3.4503  -33.9191 O   0  0  0  0  0  0  0  0  0  0  0  0
   33.4667   -2.6524  -33.5549 C   0  0  1  0  0  0  0  0  0  0  0  0
   34.3482   -3.2769  -32.5923 N   0  0  0  0  0  0  0  0  0  0  0  0
   35.2645   -4.2437  -32.7718 C   0  0  0  0  0  0  0  0  0  0  0  0
   35.8539   -4.5142  -31.5821 N   0  0  0  0  0  0  0  0  0  0  0  0
   35.3102   -3.7151  -30.6382 C   0  0  0  0  0  0  0  0  0  0  0  0
   35.5629   -3.6050  -29.2880 C   0  0  0  0  0  0  0  0  0  0  0  0
   36.5269   -4.3861  -28.6003 N   0  0  0  0  0  0  0  0  0  0  0  0
   34.8518   -2.7042  -28.5891 N   0  0  0  0  0  0  0  0  0  0  0  0
   33.9212   -1.9371  -29.2046 C   0  0  0  0  0  0  0  0  0  0  0  0
   33.6891   -2.0594  -30.5232 N   0  0  0  0  0  0  0  0  0  0  0  0
   34.3596   -2.9379  -31.2904 C   0  0  0  0  0  0  0  0  0  0  0  0
   34.1794   -2.4585  -34.8981 C   0  0  2  0  0  0  0  0  0  0  0  0
   34.9795   -1.3471  -34.7820 O   0  0  0  0  0  0  0  0  0  0  0  0
   32.9664   -2.1922  -35.7948 C   0  0  2  0  0  0  0  0  0  0  0  0
   32.8498   -0.7836  -35.8414 O   0  0  0  0  0  0  0  0  0  0  0  0
   28.1754   -8.9946  -37.7839 C   0  0  1  0  0  0  0  0  0  0  0  0
   29.5447   -9.1883  -37.7795 O   0  0  0  0  0  0  0  0  0  0  0  0
   27.4269  -10.3157  -37.6569 C   0  0  1  0  0  0  0  0  0  0  0  0
   28.1739  -11.1210  -36.8016 O   0  0  0  0  0  0  0  0  0  0  0  0
   25.1955   -8.9490  -38.9990 C   0  0  0  0  0  0  0  0  0  0  0  0
   24.1361   -8.7620  -39.7663 C   0  0  0  0  0  0  0  0  0  0  0  0
   22.7923   -9.2584  -39.4655 C   0  0  0  0  0  0  0  0  0  0  0  0
  1  2  1  0
  2  3  2  0
  2  4  1  0
  4  5  2  0
  5  6  1  0
  7  6  1  6
  7  8  1  0
  8  9  1  0
  9 10  1  6
 10 11  1  0
 11 12  1  0
 12 13  2  0
 12 14  1  1
 12 15  1  0
 15 16  1  0
 16 17  2  0
 16 18  1  1
 16 19  1  0
 19 20  1  0
 21 20  1  6
 21 22  1  0
 22 23  1  0
 23 24  1  1
 24 25  1  0
 25 26  2  0
 26 27  1  0
 27 28  2  0
 28 29  1  0
 28 30  1  0
 30 31  2  0
 31 32  1  0
 32 33  2  0
 23 34  1  0
 34 35  1  1
 34 36  1  0
 36 37  1  1
  9 38  1  0
 38 39  1  1
 38 40  1  0
 40 41  1  1
  6 42  1  0
 42 43  2  0
 43 44  1  0
 44  4  1  0
 40  7  1  0
 36 21  1  0
 33 24  1  0
 33 27  1  0
M  END
$$$$
