
     RDKit          3D

 44 48  0  0  0  0  0  0  0  0999 V2000
   22.4870  -11.3391  -34.8024 N   0  0  0  0  0  0  0  0  0  0  0  0
   22.2610  -10.8506  -36.1022 C   0  0  0  0  0  0  0  0  0  0  0  0
   21.1228  -10.9898  -36.6171 O   0  0  0  0  0  0  0  0  0  0  0  0
   23.2947  -10.1813  -36.8940 C   0  0  0  0  0  0  0  0  0  0  0  0
   24.5125  -10.0437  -36.4555 C   0  0  0  0  0  0  0  0  0  0  0  0
   25.5598   -9.4012  -37.1827 N   0  0  0  0  0  0  0  0  0  0  0  0
   26.8759   -9.2686  -36.6754 C   0  0  2  0  0  0  0  0  0  0  0  0
   27.1282   -7.9785  -36.3100 O   0  0  0  0  0  0  0  0  0  0  0  0
   28.1950   -7.4884  -37.0031 C   0  0  2  0  0  0  0  0  0  0  0  0
   28.0367   -6.0629  -37.4672 C   0  0  0  0  0  0  0  0  0  0  0  0
   28.5380   -5.9502  -38.7417 O   0  0  0  0  0  0  0  0  0  0  0  0
   28.4693   -4.3703  -39.3259 P   0  0  2  0  0  5  0  0  0  0  0  0
   27.0370   -3.8722  -39.1475 O   0  0  0  0  0  0  0  0  0  0  0  0
   28.9300   -4.2702  -40.9489 O   0  0  0  0  0  0  0  0  0  0  0  0
   29.5357   -3.3890  -38.4344 O   0  0  0  0  0  0  0  0  0  0  0  0
   31.1399   -3.6694  -38.8962 P   0  0  1  0  0  5  0  0  0  0  0  0
   31.3056   -5.0158  -39.5636 O   0  0  0  0  0  0  0  0  0  0  0  0
   31.6675   -2.4612  -39.9787 O   0  0  0  0  0  0  0  0  0  0  0  0
   32.1071   -3.5711  -37.4916 O   0  0  0  0  0  0  0  0  0  0  0  0
   31.4426   -2.7410  -36.5916 C   0  0  0  0  0  0  0  0  0  0  0  0
   32.4525   -2.2815  -35.5547 C   0  0  1  0  0  0  0  0  0  0  0  0
   32.4526   -3.1197  -34.4420 O   0  0  0  0  0  0  0  0  0  0  0  0
   33.6535   -2.8415  -33.8383 C   0  0  1  0  0  0  0  0  0  0  0  0
   33.9801   -3.7589  -32.7682 N   0  0  0  0  0  0  0  0  0  0  0  0
   34.4031   -5.0329  -32.8320 C   0  0  0  0  0  0  0  0  0  0  0  0
   34.5829   -5.4979  -31.5720 N   0  0  0  0  0  0  0  0  0  0  0  0
   34.2726   -4.5144  -30.6994 C   0  0  0  0  0  0  0  0  0  0  0  0
   34.2902   -4.4855  -29.3218 C   0  0  0  0  0  0  0  0  0  0  0  0
   34.6732   -5.5879  -28.5152 N   0  0  0  0  0  0  0  0  0  0  0  0
   33.9224   -3.3448  -28.7145 N   0  0  0  0  0  0  0  0  0  0  0  0
   33.5492   -2.2674  -29.4448 C   0  0  0  0  0  0  0  0  0  0  0  0
   33.5386   -2.3153  -30.7884 N   0  0  0  0  0  0  0  0  0  0  0  0
   33.8931   -3.4204  -31.4689 C   0  0  0  0  0  0  0  0  0  0  0  0
   34.6283   -3.0047  -35.0100 C   0  0  2  0  0  0  0  0  0  0  0  0
   35.7846   -2.3400  -34.6781 O   0  0  0  0  0  0  0  0  0  0  0  0
   33.8438   -2.2675  -36.0997 C   0  0  2  0  0  0  0  0  0  0  0  0
   34.3472   -0.9461  -36.0805 O   0  0  0  0  0  0  0  0  0  0  0  0
   28.4315   -8.4211  -38.1941 C   0  0  1  0  0  0  0  0  0  0  0  0
   29.7731   -8.4654  -38.5267 O   0  0  0  0  0  0  0  0  0  0  0  0
   27.9688   -9.7341  -37.5748 C   0  0  1  0  0  0  0  0  0  0  0  0
   29.0258  -10.2099  -36.8036 O   0  0  0  0  0  0  0  0  0  0  0  0
   25.2508   -8.8800  -38.4657 C   0  0  0  0  0  0  0  0  0  0  0  0
   24.0208   -9.0083  -38.9310 C   0  0  0  0  0  0  0  0  0  0  0  0
   22.9234   -9.6600  -38.2145 C   0  0  0  0  0  0  0  0  0  0  0  0
  1  2  1  0
  2  3  2  0
  2  4  1  0
  4  5  2  0
  5  6  1  0
  7  6  1  6
  7  8  1  0
  8  9  1  0
  9 10  1  6
 10 11  1  0
 11 12  1  0
 12 13  2  0
 12 14  1  6
 12 15  1  0
 15 16  1  0
 16 17  2  0
 16 18  1  6
 16 19  1  0
 19 20  1  0
 21 20  1  6
 21 22  1  0
 22 23  1  0
 23 24  1  1
 24 25  1  0
 25 26  2  0
 26 27  1  0
 27 28  2  0
 28 29  1  0
 28 30  1  0
 30 31  2  0
 31 32  1  0
 32 33  2  0
 23 34  1  0
 34 35  1  1
 34 36  1  0
 36 37  1  1
  9 38  1  0
 38 39  1  1
 38 40  1  0
 40 41  1  1
  6 42  1  0
 42 43  2  0
 43 44  1  0
 44  4  1  0
 40  7  1  0
 36 21  1  0
 33 24  1  0
 33 27  1  0
M  END
$$$$
