
     RDKit          3D

 44 48  0  0  0  0  0  0  0  0999 V2000
   15.6164  -15.2463   -6.9396 N   0  0  0  0  0  0  0  0  0  0  0  0
   14.9666  -15.4985   -5.7176 C   0  0  0  0  0  0  0  0  0  0  0  0
   14.2401  -14.6034   -5.2167 O   0  0  0  0  0  0  0  0  0  0  0  0
   15.0948  -16.7636   -4.9920 C   0  0  0  0  0  0  0  0  0  0  0  0
   15.9139  -17.6973   -5.3813 C   0  0  0  0  0  0  0  0  0  0  0  0
   16.0804  -18.9487   -4.7142 N   0  0  0  0  0  0  0  0  0  0  0  0
   16.9821  -19.9439   -5.1651 C   0  0  2  0  0  0  0  0  0  0  0  0
   16.3174  -20.9457   -5.8102 O   0  0  0  0  0  0  0  0  0  0  0  0
   16.5456  -22.1405   -5.1946 C   0  0  2  0  0  0  0  0  0  0  0  0
   15.3334  -23.0305   -5.0894 C   0  0  0  0  0  0  0  0  0  0  0  0
   14.7676  -22.8690   -3.8476 O   0  0  0  0  0  0  0  0  0  0  0  0
   13.9994  -24.2665   -3.3008 P   0  0  2  0  0  5  0  0  0  0  0  0
   12.8535  -24.5720   -4.2625 O   0  0  0  0  0  0  0  0  0  0  0  0
   13.4156  -24.0975   -1.7237 O   0  0  0  0  0  0  0  0  0  0  0  0
   15.1072  -25.5579   -3.2960 O   0  0  0  0  0  0  0  0  0  0  0  0
   14.3208  -27.0243   -2.9848 P   0  0  1  0  0  5  0  0  0  0  0  0
   15.2149  -27.9966   -2.2493 O   0  0  0  0  0  0  0  0  0  0  0  0
   12.9209  -26.7615   -2.0461 O   0  0  0  0  0  0  0  0  0  0  0  0
   13.8291  -27.6760   -4.4853 O   0  0  0  0  0  0  0  0  0  0  0  0
   14.9539  -27.7127   -5.3064 C   0  0  0  0  0  0  0  0  0  0  0  0
   14.7888  -28.8796   -6.2641 C   0  0  1  0  0  0  0  0  0  0  0  0
   15.8633  -28.9660   -7.1467 O   0  0  0  0  0  0  0  0  0  0  0  0
   15.7804  -30.2522   -7.6186 C   0  0  1  0  0  0  0  0  0  0  0  0
   16.9344  -30.6503   -8.3953 N   0  0  0  0  0  0  0  0  0  0  0  0
   18.2056  -30.8420   -8.0032 C   0  0  0  0  0  0  0  0  0  0  0  0
   18.9440  -31.2110   -9.0777 N   0  0  0  0  0  0  0  0  0  0  0  0
   18.1389  -31.2550  -10.1616 C   0  0  0  0  0  0  0  0  0  0  0  0
   18.4044  -31.5715  -11.4763 C   0  0  0  0  0  0  0  0  0  0  0  0
   19.6886  -31.9382  -11.9547 N   0  0  0  0  0  0  0  0  0  0  0  0
   17.3841  -31.5281  -12.3494 N   0  0  0  0  0  0  0  0  0  0  0  0
   16.1414  -31.1832  -11.9368 C   0  0  0  0  0  0  0  0  0  0  0  0
   15.9022  -30.8778  -10.6495 N   0  0  0  0  0  0  0  0  0  0  0  0
   16.8710  -30.8983   -9.7162 C   0  0  0  0  0  0  0  0  0  0  0  0
   15.7027  -31.0513   -6.3128 C   0  0  2  0  0  0  0  0  0  0  0  0
   15.1791  -32.2852   -6.6167 O   0  0  0  0  0  0  0  0  0  0  0  0
   14.7015  -30.1850   -5.5424 C   0  0  2  0  0  0  0  0  0  0  0  0
   13.4416  -30.7789   -5.7873 O   0  0  0  0  0  0  0  0  0  0  0  0
   17.1142  -21.8360   -3.8059 C   0  0  1  0  0  0  0  0  0  0  0  0
   17.9815  -22.8332   -3.3989 O   0  0  0  0  0  0  0  0  0  0  0  0
   17.8601  -20.5456   -4.1225 C   0  0  1  0  0  0  0  0  0  0  0  0
   19.0724  -20.9129   -4.7002 O   0  0  0  0  0  0  0  0  0  0  0  0
   15.3017  -19.1875   -3.5524 C   0  0  0  0  0  0  0  0  0  0  0  0
   14.4634  -18.2535   -3.1388 C   0  0  0  0  0  0  0  0  0  0  0  0
   14.2669  -16.9608   -3.7966 C   0  0  0  0  0  0  0  0  0  0  0  0
  1  2  1  0
  2  3  2  0
  2  4  1  0
  4  5  2  0
  5  6  1  0
  7  6  1  1
  7  8  1  0
  8  9  1  0
  9 10  1  1
 10 11  1  0
 11 12  1  0
 12 13  2  0
 12 14  1  1
 12 15  1  0
 15 16  1  0
 16 17  2  0
 16 18  1  1
 16 19  1  0
 19 20  1  0
 21 20  1  1
 21 22  1  0
 22 23  1  0
 23 24  1  1
 24 25  1  0
 25 26  2  0
 26 27  1  0
 27 28  2  0
 28 29  1  0
 28 30  1  0
 30 31  2  0
 31 32  1  0
 32 33  2  0
 23 34  1  0
 34 35  1  6
 34 36  1  0
 36 37  1  6
  9 38  1  0
 38 39  1  6
 38 40  1  0
 40 41  1  6
  6 42  1  0
 42 43  2  0
 43 44  1  0
 44  4  1  0
 40  7  1  0
 36 21  1  0
 33 24  1  0
 33 27  1  0
M  END
$$$$
