
     RDKit          3D

 44 48  0  0  0  0  0  0  0  0999 V2000
   16.1875  -16.1187   -7.5816 N   0  0  0  0  0  0  0  0  0  0  0  0
   15.5510  -16.1121   -6.3270 C   0  0  0  0  0  0  0  0  0  0  0  0
   14.8991  -15.0953   -5.9788 O   0  0  0  0  0  0  0  0  0  0  0  0
   15.6098  -17.2409   -5.3966 C   0  0  0  0  0  0  0  0  0  0  0  0
   16.2967  -18.3140   -5.6630 C   0  0  0  0  0  0  0  0  0  0  0  0
   16.3901  -19.4437   -4.7949 N   0  0  0  0  0  0  0  0  0  0  0  0
   17.1476  -20.5969   -5.1160 C   0  0  2  0  0  0  0  0  0  0  0  0
   16.3377  -21.6046   -5.5520 O   0  0  0  0  0  0  0  0  0  0  0  0
   16.4768  -22.7034   -4.7572 C   0  0  2  0  0  0  0  0  0  0  0  0
   15.1857  -23.4171   -4.4467 C   0  0  0  0  0  0  0  0  0  0  0  0
   15.3753  -24.2268   -3.3527 O   0  0  0  0  0  0  0  0  0  0  0  0
   13.9223  -24.7204   -2.6545 P   0  0  2  0  0  5  0  0  0  0  0  0
   12.8874  -23.6289   -2.9174 O   0  0  0  0  0  0  0  0  0  0  0  0
   14.0752  -24.9997   -0.9946 O   0  0  0  0  0  0  0  0  0  0  0  0
   13.4159  -26.1788   -3.3698 O   0  0  0  0  0  0  0  0  0  0  0  0
   14.4446  -27.4511   -2.9356 P   0  0  1  0  0  5  0  0  0  0  0  0
   15.5097  -27.0048   -1.9599 O   0  0  0  0  0  0  0  0  0  0  0  0
   13.5546  -28.7189   -2.2212 O   0  0  0  0  0  0  0  0  0  0  0  0
   15.1549  -28.0535   -4.3676 O   0  0  0  0  0  0  0  0  0  0  0  0
   14.3209  -27.6933   -5.4237 C   0  0  0  0  0  0  0  0  0  0  0  0
   14.2641  -28.8652   -6.3878 C   0  0  1  0  0  0  0  0  0  0  0  0
   15.3488  -28.8547   -7.2620 O   0  0  0  0  0  0  0  0  0  0  0  0
   15.3803  -30.1409   -7.7402 C   0  0  1  0  0  0  0  0  0  0  0  0
   16.5702  -30.4346   -8.5091 N   0  0  0  0  0  0  0  0  0  0  0  0
   17.7998  -30.7754   -8.0870 C   0  0  0  0  0  0  0  0  0  0  0  0
   18.5987  -30.9554   -9.1665 N   0  0  0  0  0  0  0  0  0  0  0  0
   17.8742  -30.7280  -10.2839 C   0  0  0  0  0  0  0  0  0  0  0  0
   18.2218  -30.7800  -11.6163 C   0  0  0  0  0  0  0  0  0  0  0  0
   19.5208  -31.1122  -12.0795 N   0  0  0  0  0  0  0  0  0  0  0  0
   17.2710  -30.4988  -12.5231 N   0  0  0  0  0  0  0  0  0  0  0  0
   16.0172  -30.1766  -12.1261 C   0  0  0  0  0  0  0  0  0  0  0  0
   15.6974  -30.1313  -10.8210 N   0  0  0  0  0  0  0  0  0  0  0  0
   16.5934  -30.3997   -9.8539 C   0  0  0  0  0  0  0  0  0  0  0  0
   15.3613  -30.9502   -6.4385 C   0  0  2  0  0  0  0  0  0  0  0  0
   14.9479  -32.2229   -6.7520 O   0  0  0  0  0  0  0  0  0  0  0  0
   14.2835  -30.1770   -5.6725 C   0  0  2  0  0  0  0  0  0  0  0  0
   13.0812  -30.8755   -5.9303 O   0  0  0  0  0  0  0  0  0  0  0  0
   17.1660  -22.2485   -3.4678 C   0  0  1  0  0  0  0  0  0  0  0  0
   17.9464  -23.2619   -2.9420 O   0  0  0  0  0  0  0  0  0  0  0  0
   18.0234  -21.1219   -4.0309 C   0  0  1  0  0  0  0  0  0  0  0  0
   19.1481  -21.7162   -4.5967 O   0  0  0  0  0  0  0  0  0  0  0  0
   15.6881  -19.3908   -3.5629 C   0  0  0  0  0  0  0  0  0  0  0  0
   14.9843  -18.3111   -3.2715 C   0  0  0  0  0  0  0  0  0  0  0  0
   14.8659  -17.1359   -4.1361 C   0  0  0  0  0  0  0  0  0  0  0  0
  1  2  1  0
  2  3  2  0
  2  4  1  0
  4  5  2  0
  5  6  1  0
  7  6  1  1
  7  8  1  0
  8  9  1  0
  9 10  1  1
 10 11  1  0
 11 12  1  0
 12 13  2  0
 12 14  1  1
 12 15  1  0
 15 16  1  0
 16 17  2  0
 16 18  1  1
 16 19  1  0
 19 20  1  0
 21 20  1  1
 21 22  1  0
 22 23  1  0
 23 24  1  1
 24 25  1  0
 25 26  2  0
 26 27  1  0
 27 28  2  0
 28 29  1  0
 28 30  1  0
 30 31  2  0
 31 32  1  0
 32 33  2  0
 23 34  1  0
 34 35  1  6
 34 36  1  0
 36 37  1  6
  9 38  1  0
 38 39  1  6
 38 40  1  0
 40 41  1  6
  6 42  1  0
 42 43  2  0
 43 44  1  0
 44  4  1  0
 40  7  1  0
 36 21  1  0
 33 24  1  0
 33 27  1  0
M  END
$$$$
