
     RDKit          3D

 44 48  0  0  0  0  0  0  0  0999 V2000
   21.5222  -10.4917  -35.9739 N   0  0  0  0  0  0  0  0  0  0  0  0
   21.7943  -10.0535  -37.2828 C   0  0  0  0  0  0  0  0  0  0  0  0
   20.8787  -10.0953  -38.1430 O   0  0  0  0  0  0  0  0  0  0  0  0
   23.1032   -9.5458  -37.6984 C   0  0  0  0  0  0  0  0  0  0  0  0
   24.1278   -9.5532  -36.8957 C   0  0  0  0  0  0  0  0  0  0  0  0
   25.4256   -9.0720  -37.2461 N   0  0  0  0  0  0  0  0  0  0  0  0
   26.5203   -9.0951  -36.3472 C   0  0  2  0  0  0  0  0  0  0  0  0
   27.0691   -7.8527  -36.2178 O   0  0  0  0  0  0  0  0  0  0  0  0
   28.3841   -7.8744  -36.5767 C   0  0  2  0  0  0  0  0  0  0  0  0
   28.8331   -6.6779  -37.3764 C   0  0  0  0  0  0  0  0  0  0  0  0
   27.7326   -6.0812  -37.9429 O   0  0  0  0  0  0  0  0  0  0  0  0
   28.1320   -4.7172  -38.8497 P   0  0  2  0  0  5  0  0  0  0  0  0
   26.8337   -3.9866  -39.1842 O   0  0  0  0  0  0  0  0  0  0  0  0
   28.9659   -5.1145  -40.2651 O   0  0  0  0  0  0  0  0  0  0  0  0
   29.1441   -3.7027  -37.9324 O   0  0  0  0  0  0  0  0  0  0  0  0
   30.6987   -3.6411  -38.5995 P   0  0  1  0  0  5  0  0  0  0  0  0
   31.0056   -4.8705  -39.4242 O   0  0  0  0  0  0  0  0  0  0  0  0
   30.8647   -2.2667  -39.5962 O   0  0  0  0  0  0  0  0  0  0  0  0
   31.8090   -3.4889  -37.3103 O   0  0  0  0  0  0  0  0  0  0  0  0
   31.0956   -3.0318  -36.2046 C   0  0  0  0  0  0  0  0  0  0  0  0
   32.0694   -2.3025  -35.2958 C   0  0  1  0  0  0  0  0  0  0  0  0
   32.5688   -3.1475  -34.3071 O   0  0  0  0  0  0  0  0  0  0  0  0
   33.6964   -2.4947  -33.8752 C   0  0  1  0  0  0  0  0  0  0  0  0
   34.5151   -3.2949  -32.9903 N   0  0  0  0  0  0  0  0  0  0  0  0
   35.3979   -4.2647  -33.2842 C   0  0  0  0  0  0  0  0  0  0  0  0
   35.9305   -4.7357  -32.1308 N   0  0  0  0  0  0  0  0  0  0  0  0
   35.3841   -4.0622  -31.0950 C   0  0  0  0  0  0  0  0  0  0  0  0
   35.5898   -4.1657  -29.7364 C   0  0  0  0  0  0  0  0  0  0  0  0
   36.4950   -5.0835  -29.1440 N   0  0  0  0  0  0  0  0  0  0  0  0
   34.8897   -3.3476  -28.9327 N   0  0  0  0  0  0  0  0  0  0  0  0
   34.0146   -2.4559  -29.4547 C   0  0  0  0  0  0  0  0  0  0  0  0
   33.8278   -2.3700  -30.7834 N   0  0  0  0  0  0  0  0  0  0  0  0
   34.4909   -3.1542  -31.6524 C   0  0  0  0  0  0  0  0  0  0  0  0
   34.4230   -2.2336  -35.1994 C   0  0  2  0  0  0  0  0  0  0  0  0
   35.3259   -1.2209  -34.9799 O   0  0  0  0  0  0  0  0  0  0  0  0
   33.2403   -1.7634  -36.0516 C   0  0  2  0  0  0  0  0  0  0  0  0
   33.2588   -0.3527  -35.9540 O   0  0  0  0  0  0  0  0  0  0  0  0
   28.6205   -9.1679  -37.3613 C   0  0  1  0  0  0  0  0  0  0  0  0
   29.9110   -9.6287  -37.1747 O   0  0  0  0  0  0  0  0  0  0  0  0
   27.6039  -10.0662  -36.6677 C   0  0  1  0  0  0  0  0  0  0  0  0
   28.1934  -10.5025  -35.4844 O   0  0  0  0  0  0  0  0  0  0  0  0
   25.6076   -8.5529  -38.5540 C   0  0  0  0  0  0  0  0  0  0  0  0
   24.5811   -8.5355  -39.3859 C   0  0  0  0  0  0  0  0  0  0  0  0
   23.2384   -9.0197  -39.0615 C   0  0  0  0  0  0  0  0  0  0  0  0
  1  2  1  0
  2  3  2  0
  2  4  1  0
  4  5  2  0
  5  6  1  0
  7  6  1  6
  7  8  1  0
  8  9  1  0
  9 10  1  6
 10 11  1  0
 11 12  1  0
 12 13  2  0
 12 14  1  6
 12 15  1  0
 15 16  1  0
 16 17  2  0
 16 18  1  6
 16 19  1  0
 19 20  1  0
 21 20  1  6
 21 22  1  0
 22 23  1  0
 23 24  1  1
 24 25  1  0
 25 26  2  0
 26 27  1  0
 27 28  2  0
 28 29  1  0
 28 30  1  0
 30 31  2  0
 31 32  1  0
 32 33  2  0
 23 34  1  0
 34 35  1  1
 34 36  1  0
 36 37  1  1
  9 38  1  0
 38 39  1  1
 38 40  1  0
 40 41  1  1
  6 42  1  0
 42 43  2  0
 43 44  1  0
 44  4  1  0
 40  7  1  0
 36 21  1  0
 33 24  1  0
 33 27  1  0
M  END
$$$$
