
     RDKit          3D

 44 48  0  0  0  0  0  0  0  0999 V2000
   16.2494  -15.0614   -6.8420 N   0  0  0  0  0  0  0  0  0  0  0  0
   15.7159  -15.2167   -5.5496 C   0  0  0  0  0  0  0  0  0  0  0  0
   15.2013  -14.2223   -4.9783 O   0  0  0  0  0  0  0  0  0  0  0  0
   15.7297  -16.4908   -4.8285 C   0  0  0  0  0  0  0  0  0  0  0  0
   16.2579  -17.5637   -5.3423 C   0  0  0  0  0  0  0  0  0  0  0  0
   16.2999  -18.8311   -4.6863 N   0  0  0  0  0  0  0  0  0  0  0  0
   16.8835  -19.9801   -5.2747 C   0  0  2  0  0  0  0  0  0  0  0  0
   15.9221  -20.8345   -5.7299 O   0  0  0  0  0  0  0  0  0  0  0  0
   16.0455  -22.0520   -5.1291 C   0  0  2  0  0  0  0  0  0  0  0  0
   14.7371  -22.6931   -4.7421 C   0  0  0  0  0  0  0  0  0  0  0  0
   14.8722  -24.0589   -4.8093 O   0  0  0  0  0  0  0  0  0  0  0  0
   14.2180  -24.8400   -3.4661 P   0  0  2  0  0  5  0  0  0  0  0  0
   12.9060  -25.4889   -3.9007 O   0  0  0  0  0  0  0  0  0  0  0  0
   13.9518  -23.7782   -2.1783 O   0  0  0  0  0  0  0  0  0  0  0  0
   15.2997  -26.0355   -2.9225 O   0  0  0  0  0  0  0  0  0  0  0  0
   14.5420  -27.5478   -2.8568 P   0  0  1  0  0  5  0  0  0  0  0  0
   14.8435  -28.2718   -1.5643 O   0  0  0  0  0  0  0  0  0  0  0  0
   12.8509  -27.3728   -2.9963 O   0  0  0  0  0  0  0  0  0  0  0  0
   15.0855  -28.4572   -4.1967 O   0  0  0  0  0  0  0  0  0  0  0  0
   14.3679  -28.0214   -5.3083 C   0  0  0  0  0  0  0  0  0  0  0  0
   14.3022  -29.1728   -6.2963 C   0  0  1  0  0  0  0  0  0  0  0  0
   15.3824  -29.1476   -7.1757 O   0  0  0  0  0  0  0  0  0  0  0  0
   15.4071  -30.4236   -7.6806 C   0  0  1  0  0  0  0  0  0  0  0  0
   16.5921  -30.7051   -8.4618 N   0  0  0  0  0  0  0  0  0  0  0  0
   17.8693  -30.8338   -8.0637 C   0  0  0  0  0  0  0  0  0  0  0  0
   18.6404  -31.0979   -9.1461 N   0  0  0  0  0  0  0  0  0  0  0  0
   17.8502  -31.1379  -10.2411 C   0  0  0  0  0  0  0  0  0  0  0  0
   18.1484  -31.3679  -11.5667 C   0  0  0  0  0  0  0  0  0  0  0  0
   19.4583  -31.6250  -12.0467 N   0  0  0  0  0  0  0  0  0  0  0  0
   17.1357  -31.3458  -12.4494 N   0  0  0  0  0  0  0  0  0  0  0  0
   15.8692  -31.1042  -12.0357 C   0  0  0  0  0  0  0  0  0  0  0  0
   15.5984  -30.8821  -10.7376 N   0  0  0  0  0  0  0  0  0  0  0  0
   16.5576  -30.8880   -9.7943 C   0  0  0  0  0  0  0  0  0  0  0  0
   15.3922  -31.2598   -6.3960 C   0  0  2  0  0  0  0  0  0  0  0  0
   14.9730  -32.5244   -6.7337 O   0  0  0  0  0  0  0  0  0  0  0  0
   14.3210  -30.4992   -5.6084 C   0  0  2  0  0  0  0  0  0  0  0  0
   13.1150  -31.1884   -5.8743 O   0  0  0  0  0  0  0  0  0  0  0  0
   16.9395  -21.8648   -3.9002 C   0  0  1  0  0  0  0  0  0  0  0  0
   17.6697  -23.0107   -3.6426 O   0  0  0  0  0  0  0  0  0  0  0  0
   17.8315  -20.7410   -4.4131 C   0  0  1  0  0  0  0  0  0  0  0  0
   18.8045  -21.3330   -5.2137 O   0  0  0  0  0  0  0  0  0  0  0  0
   15.7284  -18.9246   -3.3909 C   0  0  0  0  0  0  0  0  0  0  0  0
   15.1865  -17.8479   -2.8496 C   0  0  0  0  0  0  0  0  0  0  0  0
   15.1256  -16.5340   -3.4919 C   0  0  0  0  0  0  0  0  0  0  0  0
  1  2  1  0
  2  3  2  0
  2  4  1  0
  4  5  2  0
  5  6  1  0
  7  6  1  1
  7  8  1  0
  8  9  1  0
  9 10  1  1
 10 11  1  0
 11 12  1  0
 12 13  2  0
 12 14  1  1
 12 15  1  0
 15 16  1  0
 16 17  2  0
 16 18  1  6
 16 19  1  0
 19 20  1  0
 21 20  1  1
 21 22  1  0
 22 23  1  0
 23 24  1  1
 24 25  1  0
 25 26  2  0
 26 27  1  0
 27 28  2  0
 28 29  1  0
 28 30  1  0
 30 31  2  0
 31 32  1  0
 32 33  2  0
 23 34  1  0
 34 35  1  6
 34 36  1  0
 36 37  1  6
  9 38  1  0
 38 39  1  6
 38 40  1  0
 40 41  1  6
  6 42  1  0
 42 43  2  0
 43 44  1  0
 44  4  1  0
 40  7  1  0
 36 21  1  0
 33 24  1  0
 33 27  1  0
M  END
$$$$
