
     RDKit          3D

 17 20  0  0  0  0  0  0  0  0999 V2000
   37.8022   29.1426   87.9442 C   0  0  0  0  0  0  0  0  0  0  0  0
   38.7373   30.0738   87.2590 C   0  0  0  0  0  0  0  0  0  0  0  0
   39.7324   30.6824   87.9749 C   0  0  0  0  0  0  0  0  0  0  0  0
   40.5858   31.5388   87.3248 C   0  0  0  0  0  0  0  0  0  0  0  0
   40.3820   31.7323   85.9756 C   0  0  0  0  0  0  0  0  0  0  0  0
   39.3731   31.1110   85.2657 C   0  0  0  0  0  0  0  0  0  0  0  0
   38.5706   30.2888   85.9409 N   0  0  0  0  0  0  0  0  0  0  0  0
   39.4229   31.4965   83.9594 N   0  0  0  0  0  0  0  0  0  0  0  0
   40.4468   32.3542   83.8241 C   0  0  0  0  0  0  0  0  0  0  0  0
   40.9300   33.0224   82.7279 C   0  0  0  0  0  0  0  0  0  0  0  0
   40.3724   32.9716   81.3710 C   0  0  0  0  0  0  0  0  0  0  0  0
   39.3407   34.1159   81.0873 C   0  0  0  0  0  0  0  0  0  0  0  0
   39.0039   32.5978   81.0314 C   0  0  0  0  0  0  0  0  0  0  0  0
   42.0443   33.8605   82.8926 C   0  0  0  0  0  0  0  0  0  0  0  0
   42.6508   34.0225   84.1141 C   0  0  0  0  0  0  0  0  0  0  0  0
   42.1542   33.3471   85.2017 C   0  0  0  0  0  0  0  0  0  0  0  0
   41.0450   32.5095   85.0475 C   0  0  0  0  0  0  0  0  0  0  0  0
  1  2  1  0
  2  3  2  0
  3  4  1  0
  4  5  2  0
  5  6  1  0
  6  7  2  0
  6  8  1  0
  8  9  1  0
  9 10  2  0
 10 11  1  0
 11 12  1  0
 12 13  1  0
 10 14  1  0
 14 15  2  0
 15 16  1  0
 16 17  2  0
  7  2  1  0
 17  9  1  0
 17  5  1  0
 13 11  1  0
M  END
$$$$
