
     RDKit          3D

 17 20  0  0  0  0  0  0  0  0999 V2000
   34.5470   39.4654   60.2684 C   0  0  0  0  0  0  0  0  0  0  0  0
   34.4507   38.3249   61.2176 C   0  0  0  0  0  0  0  0  0  0  0  0
   35.1433   38.3654   62.3973 C   0  0  0  0  0  0  0  0  0  0  0  0
   35.0418   37.3030   63.2606 C   0  0  0  0  0  0  0  0  0  0  0  0
   34.2383   36.2508   62.8778 C   0  0  0  0  0  0  0  0  0  0  0  0
   33.5449   36.2235   61.6834 C   0  0  0  0  0  0  0  0  0  0  0  0
   33.6755   37.2779   60.8792 N   0  0  0  0  0  0  0  0  0  0  0  0
   32.8411   35.0604   61.5849 N   0  0  0  0  0  0  0  0  0  0  0  0
   33.0745   34.3448   62.6965 C   0  0  0  0  0  0  0  0  0  0  0  0
   32.6104   33.1181   63.0984 C   0  0  0  0  0  0  0  0  0  0  0  0
   31.7209   32.2381   62.3309 C   0  0  0  0  0  0  0  0  0  0  0  0
   32.4673   31.0208   61.6862 C   0  0  0  0  0  0  0  0  0  0  0  0
   31.7043   32.1097   60.8779 C   0  0  0  0  0  0  0  0  0  0  0  0
   33.0277   32.6196   64.3427 C   0  0  0  0  0  0  0  0  0  0  0  0
   33.8809   33.3268   65.1538 C   0  0  0  0  0  0  0  0  0  0  0  0
   34.3372   34.5530   64.7364 C   0  0  0  0  0  0  0  0  0  0  0  0
   33.9267   35.0582   63.4987 C   0  0  0  0  0  0  0  0  0  0  0  0
  1  2  1  0
  2  3  2  0
  3  4  1  0
  4  5  2  0
  5  6  1  0
  6  7  2  0
  6  8  1  0
  8  9  1  0
  9 10  2  0
 10 11  1  0
 11 12  1  0
 12 13  1  0
 10 14  1  0
 14 15  2  0
 15 16  1  0
 16 17  2  0
  7  2  1  0
 17  9  1  0
 17  5  1  0
 13 11  1  0
M  END
$$$$
