
     RDKit          3D

 17 20  0  0  0  0  0  0  0  0999 V2000
   37.4621   32.8563   67.6793 C   0  0  0  0  0  0  0  0  0  0  0  0
   37.0783   33.9766   66.7801 C   0  0  0  0  0  0  0  0  0  0  0  0
   37.7061   35.1868   66.9002 C   0  0  0  0  0  0  0  0  0  0  0  0
   37.3380   36.2089   66.0612 C   0  0  0  0  0  0  0  0  0  0  0  0
   36.3470   35.9462   65.1402 C   0  0  0  0  0  0  0  0  0  0  0  0
   35.7218   34.7193   65.0303 C   0  0  0  0  0  0  0  0  0  0  0  0
   36.1138   33.7590   65.8669 N   0  0  0  0  0  0  0  0  0  0  0  0
   34.7907   34.7632   64.0360 N   0  0  0  0  0  0  0  0  0  0  0  0
   34.8110   35.9982   63.5099 C   0  0  0  0  0  0  0  0  0  0  0  0
   34.0859   36.5606   62.4903 C   0  0  0  0  0  0  0  0  0  0  0  0
   33.0267   35.9000   61.7180 C   0  0  0  0  0  0  0  0  0  0  0  0
   31.9017   35.2853   62.6185 C   0  0  0  0  0  0  0  0  0  0  0  0
   32.7994   34.4606   61.6515 C   0  0  0  0  0  0  0  0  0  0  0  0
   34.3391   37.8983   62.1478 C   0  0  0  0  0  0  0  0  0  0  0  0
   35.2856   38.6447   62.8059 C   0  0  0  0  0  0  0  0  0  0  0  0
   36.0024   38.0671   63.8250 C   0  0  0  0  0  0  0  0  0  0  0  0
   35.7576   36.7349   64.1730 C   0  0  0  0  0  0  0  0  0  0  0  0
  1  2  1  0
  2  3  2  0
  3  4  1  0
  4  5  2  0
  5  6  1  0
  6  7  2  0
  6  8  1  0
  8  9  1  0
  9 10  2  0
 10 11  1  0
 11 12  1  0
 12 13  1  0
 10 14  1  0
 14 15  2  0
 15 16  1  0
 16 17  2  0
  7  2  1  0
 17  9  1  0
 17  5  1  0
 13 11  1  0
M  END
$$$$
