
     RDKit          3D

 17 20  0  0  0  0  0  0  0  0999 V2000
   34.6352   39.4241   60.4603 C   0  0  0  0  0  0  0  0  0  0  0  0
   34.4701   38.2539   61.3627 C   0  0  0  0  0  0  0  0  0  0  0  0
   35.1141   38.2338   62.5702 C   0  0  0  0  0  0  0  0  0  0  0  0
   34.9493   37.1448   63.3895 C   0  0  0  0  0  0  0  0  0  0  0  0
   34.1352   36.1292   62.9366 C   0  0  0  0  0  0  0  0  0  0  0  0
   33.4912   36.1631   61.7150 C   0  0  0  0  0  0  0  0  0  0  0  0
   33.6824   37.2413   60.9555 N   0  0  0  0  0  0  0  0  0  0  0  0
   32.7621   35.0241   61.5460 N   0  0  0  0  0  0  0  0  0  0  0  0
   32.9306   34.2636   62.6394 C   0  0  0  0  0  0  0  0  0  0  0  0
   32.4184   33.0368   62.9774 C   0  0  0  0  0  0  0  0  0  0  0  0
   31.5388   32.2092   62.1431 C   0  0  0  0  0  0  0  0  0  0  0  0
   32.2002   30.8585   61.7043 C   0  0  0  0  0  0  0  0  0  0  0  0
   31.7143   31.9584   60.7169 C   0  0  0  0  0  0  0  0  0  0  0  0
   32.7708   32.4835   64.2186 C   0  0  0  0  0  0  0  0  0  0  0  0
   33.6079   33.1379   65.0886 C   0  0  0  0  0  0  0  0  0  0  0  0
   34.1129   34.3650   64.7348 C   0  0  0  0  0  0  0  0  0  0  0  0
   33.7672   34.9246   63.5007 C   0  0  0  0  0  0  0  0  0  0  0  0
  1  2  1  0
  2  3  2  0
  3  4  1  0
  4  5  2  0
  5  6  1  0
  6  7  2  0
  6  8  1  0
  8  9  1  0
  9 10  2  0
 10 11  1  0
 11 12  1  0
 12 13  1  0
 10 14  1  0
 14 15  2  0
 15 16  1  0
 16 17  2  0
  7  2  1  0
 17  9  1  0
 17  5  1  0
 13 11  1  0
M  END
$$$$
