
     RDKit          3D

 17 20  0  0  0  0  0  0  0  0999 V2000
   34.6547   39.8095   60.6888 C   0  0  0  0  0  0  0  0  0  0  0  0
   34.4761   38.5896   61.5199 C   0  0  0  0  0  0  0  0  0  0  0  0
   35.0856   38.5081   62.7426 C   0  0  0  0  0  0  0  0  0  0  0  0
   34.9088   37.3739   63.4954 C   0  0  0  0  0  0  0  0  0  0  0  0
   34.1185   36.3779   62.9636 C   0  0  0  0  0  0  0  0  0  0  0  0
   33.5093   36.4740   61.7275 C   0  0  0  0  0  0  0  0  0  0  0  0
   33.7109   37.5943   61.0347 N   0  0  0  0  0  0  0  0  0  0  0  0
   32.7972   35.3398   61.4747 N   0  0  0  0  0  0  0  0  0  0  0  0
   32.9423   34.5212   62.5288 C   0  0  0  0  0  0  0  0  0  0  0  0
   32.4334   33.2730   62.7834 C   0  0  0  0  0  0  0  0  0  0  0  0
   31.5866   32.4854   61.8795 C   0  0  0  0  0  0  0  0  0  0  0  0
   31.9453   30.9604   61.8743 C   0  0  0  0  0  0  0  0  0  0  0  0
   32.0197   31.8829   60.6236 C   0  0  0  0  0  0  0  0  0  0  0  0
   32.7560   32.6548   64.0019 C   0  0  0  0  0  0  0  0  0  0  0  0
   33.5611   33.2672   64.9307 C   0  0  0  0  0  0  0  0  0  0  0  0
   34.0632   34.5164   64.6601 C   0  0  0  0  0  0  0  0  0  0  0  0
   33.7471   35.1406   63.4493 C   0  0  0  0  0  0  0  0  0  0  0  0
  1  2  1  0
  2  3  2  0
  3  4  1  0
  4  5  2  0
  5  6  1  0
  6  7  2  0
  6  8  1  0
  8  9  1  0
  9 10  2  0
 10 11  1  0
 11 12  1  0
 12 13  1  0
 10 14  1  0
 14 15  2  0
 15 16  1  0
 16 17  2  0
  7  2  1  0
 17  9  1  0
 17  5  1  0
 13 11  1  0
M  END
$$$$
