
     RDKit          3D

 17 20  0  0  0  0  0  0  0  0999 V2000
   34.4578   39.8916   60.2043 C   0  0  0  0  0  0  0  0  0  0  0  0
   34.3848   38.7432   61.1460 C   0  0  0  0  0  0  0  0  0  0  0  0
   35.0914   38.7821   62.3174 C   0  0  0  0  0  0  0  0  0  0  0  0
   35.0113   37.7124   63.1739 C   0  0  0  0  0  0  0  0  0  0  0  0
   34.2138   36.6549   62.7931 C   0  0  0  0  0  0  0  0  0  0  0  0
   33.5059   36.6294   61.6072 C   0  0  0  0  0  0  0  0  0  0  0  0
   33.6159   37.6910   60.8093 N   0  0  0  0  0  0  0  0  0  0  0  0
   32.8127   35.4600   61.5086 N   0  0  0  0  0  0  0  0  0  0  0  0
   33.0670   34.7386   62.6119 C   0  0  0  0  0  0  0  0  0  0  0  0
   32.6202   33.5044   63.0102 C   0  0  0  0  0  0  0  0  0  0  0  0
   31.7302   32.6210   62.2471 C   0  0  0  0  0  0  0  0  0  0  0  0
   32.2768   31.1583   62.1207 C   0  0  0  0  0  0  0  0  0  0  0  0
   31.9977   32.0977   60.9121 C   0  0  0  0  0  0  0  0  0  0  0  0
   33.0579   33.0010   64.2455 C   0  0  0  0  0  0  0  0  0  0  0  0
   33.9139   33.7108   65.0514 C   0  0  0  0  0  0  0  0  0  0  0  0
   34.3527   34.9446   64.6376 C   0  0  0  0  0  0  0  0  0  0  0  0
   33.9218   35.4547   63.4089 C   0  0  0  0  0  0  0  0  0  0  0  0
  1  2  1  0
  2  3  2  0
  3  4  1  0
  4  5  2  0
  5  6  1  0
  6  7  2  0
  6  8  1  0
  8  9  1  0
  9 10  2  0
 10 11  1  0
 11 12  1  0
 12 13  1  0
 10 14  1  0
 14 15  2  0
 15 16  1  0
 16 17  2  0
  7  2  1  0
 17  9  1  0
 17  5  1  0
 13 11  1  0
M  END
$$$$
