
     RDKit          3D

 17 20  0  0  0  0  0  0  0  0999 V2000
   34.3576   40.0843   60.3723 C   0  0  0  0  0  0  0  0  0  0  0  0
   34.3162   38.9256   61.3032 C   0  0  0  0  0  0  0  0  0  0  0  0
   35.0225   38.9726   62.4745 C   0  0  0  0  0  0  0  0  0  0  0  0
   34.9718   37.8932   63.3210 C   0  0  0  0  0  0  0  0  0  0  0  0
   34.2026   36.8182   62.9309 C   0  0  0  0  0  0  0  0  0  0  0  0
   33.4947   36.7848   61.7451 C   0  0  0  0  0  0  0  0  0  0  0  0
   33.5756   37.8563   60.9572 N   0  0  0  0  0  0  0  0  0  0  0  0
   32.8332   35.5982   61.6360 N   0  0  0  0  0  0  0  0  0  0  0  0
   33.1076   34.8736   62.7323 C   0  0  0  0  0  0  0  0  0  0  0  0
   32.6945   33.6242   63.1194 C   0  0  0  0  0  0  0  0  0  0  0  0
   31.8279   32.7244   62.3486 C   0  0  0  0  0  0  0  0  0  0  0  0
   32.6097   31.5455   61.6753 C   0  0  0  0  0  0  0  0  0  0  0  0
   31.7974   32.6184   60.8940 C   0  0  0  0  0  0  0  0  0  0  0  0
   33.1465   33.1212   64.3497 C   0  0  0  0  0  0  0  0  0  0  0  0
   33.9838   33.8462   65.1616 C   0  0  0  0  0  0  0  0  0  0  0  0
   34.3889   35.0951   64.7592 C   0  0  0  0  0  0  0  0  0  0  0  0
   33.9436   35.6049   63.5355 C   0  0  0  0  0  0  0  0  0  0  0  0
  1  2  1  0
  2  3  2  0
  3  4  1  0
  4  5  2  0
  5  6  1  0
  6  7  2  0
  6  8  1  0
  8  9  1  0
  9 10  2  0
 10 11  1  0
 11 12  1  0
 12 13  1  0
 10 14  1  0
 14 15  2  0
 15 16  1  0
 16 17  2  0
  7  2  1  0
 17  9  1  0
 17  5  1  0
 13 11  1  0
M  END
$$$$
