
     RDKit          3D

 17 20  0  0  0  0  0  0  0  0999 V2000
   34.5694   39.4948   60.6754 C   0  0  0  0  0  0  0  0  0  0  0  0
   34.3805   38.2852   61.5194 C   0  0  0  0  0  0  0  0  0  0  0  0
   34.9730   38.2200   62.7514 C   0  0  0  0  0  0  0  0  0  0  0  0
   34.7870   37.0951   63.5158 C   0  0  0  0  0  0  0  0  0  0  0  0
   34.0053   36.0915   62.9857 C   0  0  0  0  0  0  0  0  0  0  0  0
   33.4133   36.1712   61.7402 C   0  0  0  0  0  0  0  0  0  0  0  0
   33.6233   37.2829   61.0361 N   0  0  0  0  0  0  0  0  0  0  0  0
   32.7060   35.0330   61.4917 N   0  0  0  0  0  0  0  0  0  0  0  0
   32.8373   34.2280   62.5580 C   0  0  0  0  0  0  0  0  0  0  0  0
   32.3264   32.9825   62.8213 C   0  0  0  0  0  0  0  0  0  0  0  0
   31.4931   32.1824   61.9157 C   0  0  0  0  0  0  0  0  0  0  0  0
   32.1368   30.8028   61.5460 C   0  0  0  0  0  0  0  0  0  0  0  0
   31.7861   31.9118   60.5125 C   0  0  0  0  0  0  0  0  0  0  0  0
   32.6326   32.3800   64.0518 C   0  0  0  0  0  0  0  0  0  0  0  0
   33.4240   33.0051   64.9839 C   0  0  0  0  0  0  0  0  0  0  0  0
   33.9285   34.2514   64.7046 C   0  0  0  0  0  0  0  0  0  0  0  0
   33.6285   34.8599   63.4818 C   0  0  0  0  0  0  0  0  0  0  0  0
  1  2  1  0
  2  3  2  0
  3  4  1  0
  4  5  2  0
  5  6  1  0
  6  7  2  0
  6  8  1  0
  8  9  1  0
  9 10  2  0
 10 11  1  0
 11 12  1  0
 12 13  1  0
 10 14  1  0
 14 15  2  0
 15 16  1  0
 16 17  2  0
  7  2  1  0
 17  9  1  0
 17  5  1  0
 13 11  1  0
M  END
$$$$
