
     RDKit          3D

 17 20  0  0  0  0  0  0  0  0999 V2000
   34.6145   39.4029   60.7930 C   0  0  0  0  0  0  0  0  0  0  0  0
   34.4130   38.1837   61.6200 C   0  0  0  0  0  0  0  0  0  0  0  0
   34.9870   38.1041   62.8599 C   0  0  0  0  0  0  0  0  0  0  0  0
   34.7896   36.9705   63.6084 C   0  0  0  0  0  0  0  0  0  0  0  0
   34.0159   35.9733   63.0551 C   0  0  0  0  0  0  0  0  0  0  0  0
   33.4425   36.0675   61.8019 C   0  0  0  0  0  0  0  0  0  0  0  0
   33.6631   37.1872   61.1139 N   0  0  0  0  0  0  0  0  0  0  0  0
   32.7389   34.9324   61.5298 N   0  0  0  0  0  0  0  0  0  0  0  0
   32.8543   34.1151   62.5885 C   0  0  0  0  0  0  0  0  0  0  0  0
   32.3394   32.8667   62.8297 C   0  0  0  0  0  0  0  0  0  0  0  0
   31.5197   32.0773   61.9026 C   0  0  0  0  0  0  0  0  0  0  0  0
   32.2290   30.7673   61.4179 C   0  0  0  0  0  0  0  0  0  0  0  0
   31.7722   31.9175   60.4748 C   0  0  0  0  0  0  0  0  0  0  0  0
   32.6271   32.2500   64.0577 C   0  0  0  0  0  0  0  0  0  0  0  0
   33.4046   32.8642   65.0087 C   0  0  0  0  0  0  0  0  0  0  0  0
   33.9132   34.1135   64.7513 C   0  0  0  0  0  0  0  0  0  0  0  0
   33.6316   34.7362   63.5312 C   0  0  0  0  0  0  0  0  0  0  0  0
  1  2  1  0
  2  3  2  0
  3  4  1  0
  4  5  2  0
  5  6  1  0
  6  7  2  0
  6  8  1  0
  8  9  1  0
  9 10  2  0
 10 11  1  0
 11 12  1  0
 12 13  1  0
 10 14  1  0
 14 15  2  0
 15 16  1  0
 16 17  2  0
  7  2  1  0
 17  9  1  0
 17  5  1  0
 13 11  1  0
M  END
$$$$
