
     RDKit          3D

 17 20  0  0  0  0  0  0  0  0999 V2000
   35.0988   28.5523   91.9071 C   0  0  0  0  0  0  0  0  0  0  0  0
   36.1868   28.9904   90.9930 C   0  0  0  0  0  0  0  0  0  0  0  0
   37.3948   29.3707   91.5117 C   0  0  0  0  0  0  0  0  0  0  0  0
   38.3868   29.7720   90.6520 C   0  0  0  0  0  0  0  0  0  0  0  0
   38.0976   29.7656   89.3045 C   0  0  0  0  0  0  0  0  0  0  0  0
   36.8732   29.3790   88.7950 C   0  0  0  0  0  0  0  0  0  0  0  0
   35.9426   28.9978   89.6694 N   0  0  0  0  0  0  0  0  0  0  0  0
   36.8870   29.4778   87.4358 N   0  0  0  0  0  0  0  0  0  0  0  0
   38.0998   29.9216   87.0694 C   0  0  0  0  0  0  0  0  0  0  0  0
   38.6334   30.1835   85.8331 C   0  0  0  0  0  0  0  0  0  0  0  0
   37.9344   30.0619   84.5481 C   0  0  0  0  0  0  0  0  0  0  0  0
   37.2465   28.6680   84.3521 C   0  0  0  0  0  0  0  0  0  0  0  0
   38.3623   29.2332   83.4265 C   0  0  0  0  0  0  0  0  0  0  0  0
   39.9603   30.6361   85.7592 C   0  0  0  0  0  0  0  0  0  0  0  0
   40.7235   30.8201   86.8860 C   0  0  0  0  0  0  0  0  0  0  0  0
   40.1742   30.5543   88.1161 C   0  0  0  0  0  0  0  0  0  0  0  0
   38.8534   30.1025   88.2000 C   0  0  0  0  0  0  0  0  0  0  0  0
  1  2  1  0
  2  3  2  0
  3  4  1  0
  4  5  2  0
  5  6  1  0
  6  7  2  0
  6  8  1  0
  8  9  1  0
  9 10  2  0
 10 11  1  0
 11 12  1  0
 12 13  1  0
 10 14  1  0
 14 15  2  0
 15 16  1  0
 16 17  2  0
  7  2  1  0
 17  9  1  0
 17  5  1  0
 13 11  1  0
M  END
$$$$
