
     RDKit          3D

 17 20  0  0  0  0  0  0  0  0999 V2000
   34.4659   39.7615   60.3015 C   0  0  0  0  0  0  0  0  0  0  0  0
   34.3715   38.6096   61.2371 C   0  0  0  0  0  0  0  0  0  0  0  0
   35.0587   38.6402   62.4203 C   0  0  0  0  0  0  0  0  0  0  0  0
   34.9590   37.5675   63.2709 C   0  0  0  0  0  0  0  0  0  0  0  0
   34.1627   36.5155   62.8726 C   0  0  0  0  0  0  0  0  0  0  0  0
   33.4745   36.4984   61.6749 C   0  0  0  0  0  0  0  0  0  0  0  0
   33.6031   37.5627   60.8834 N   0  0  0  0  0  0  0  0  0  0  0  0
   32.7773   35.3330   61.5600 N   0  0  0  0  0  0  0  0  0  0  0  0
   33.0096   34.6058   62.6643 C   0  0  0  0  0  0  0  0  0  0  0  0
   32.5502   33.3722   63.0501 C   0  0  0  0  0  0  0  0  0  0  0  0
   31.6686   32.4965   62.2687 C   0  0  0  0  0  0  0  0  0  0  0  0
   32.3612   31.1621   61.8283 C   0  0  0  0  0  0  0  0  0  0  0  0
   31.7951   32.2235   60.8413 C   0  0  0  0  0  0  0  0  0  0  0  0
   32.9647   32.8616   64.2904 C   0  0  0  0  0  0  0  0  0  0  0  0
   33.8108   33.5639   65.1133 C   0  0  0  0  0  0  0  0  0  0  0  0
   34.2624   34.7971   64.7120 C   0  0  0  0  0  0  0  0  0  0  0  0
   33.8546   35.3143   63.4784 C   0  0  0  0  0  0  0  0  0  0  0  0
  1  2  1  0
  2  3  2  0
  3  4  1  0
  4  5  2  0
  5  6  1  0
  6  7  2  0
  6  8  1  0
  8  9  1  0
  9 10  2  0
 10 11  1  0
 11 12  1  0
 12 13  1  0
 10 14  1  0
 14 15  2  0
 15 16  1  0
 16 17  2  0
  7  2  1  0
 17  9  1  0
 17  5  1  0
 13 11  1  0
M  END
$$$$
