
     RDKit          3D

 17 20  0  0  0  0  0  0  0  0999 V2000
   34.5373   39.6670   60.3147 C   0  0  0  0  0  0  0  0  0  0  0  0
   34.4352   38.5117   61.2451 C   0  0  0  0  0  0  0  0  0  0  0  0
   35.1196   38.5341   62.4301 C   0  0  0  0  0  0  0  0  0  0  0  0
   35.0127   37.4582   63.2759 C   0  0  0  0  0  0  0  0  0  0  0  0
   34.2125   36.4117   62.8711 C   0  0  0  0  0  0  0  0  0  0  0  0
   33.5272   36.4029   61.6717 C   0  0  0  0  0  0  0  0  0  0  0  0
   33.6628   37.4699   60.8850 N   0  0  0  0  0  0  0  0  0  0  0  0
   32.8248   35.2412   61.5501 N   0  0  0  0  0  0  0  0  0  0  0  0
   33.0510   34.5084   62.6519 C   0  0  0  0  0  0  0  0  0  0  0  0
   32.5848   33.2753   63.0314 C   0  0  0  0  0  0  0  0  0  0  0  0
   31.7011   32.4070   62.2440 C   0  0  0  0  0  0  0  0  0  0  0  0
   32.3554   31.0305   61.8818 C   0  0  0  0  0  0  0  0  0  0  0  0
   31.8758   32.0761   60.8341 C   0  0  0  0  0  0  0  0  0  0  0  0
   32.9938   32.7575   64.2705 C   0  0  0  0  0  0  0  0  0  0  0  0
   33.8410   33.4523   65.0985 C   0  0  0  0  0  0  0  0  0  0  0  0
   34.2995   34.6851   64.7035 C   0  0  0  0  0  0  0  0  0  0  0  0
   33.8972   35.2094   63.4711 C   0  0  0  0  0  0  0  0  0  0  0  0
  1  2  1  0
  2  3  2  0
  3  4  1  0
  4  5  2  0
  5  6  1  0
  6  7  2  0
  6  8  1  0
  8  9  1  0
  9 10  2  0
 10 11  1  0
 11 12  1  0
 12 13  1  0
 10 14  1  0
 14 15  2  0
 15 16  1  0
 16 17  2  0
  7  2  1  0
 17  9  1  0
 17  5  1  0
 13 11  1  0
M  END
$$$$
