
     RDKit          3D

 17 20  0  0  0  0  0  0  0  0999 V2000
   34.6221   39.6254   60.3905 C   0  0  0  0  0  0  0  0  0  0  0  0
   34.5019   38.4684   61.3168 C   0  0  0  0  0  0  0  0  0  0  0  0
   35.1653   38.4875   62.5137 C   0  0  0  0  0  0  0  0  0  0  0  0
   35.0421   37.4102   63.3554 C   0  0  0  0  0  0  0  0  0  0  0  0
   34.2477   36.3656   62.9345 C   0  0  0  0  0  0  0  0  0  0  0  0
   33.5837   36.3601   61.7232 C   0  0  0  0  0  0  0  0  0  0  0  0
   33.7346   37.4284   60.9411 N   0  0  0  0  0  0  0  0  0  0  0  0
   32.8820   35.1996   61.5869 N   0  0  0  0  0  0  0  0  0  0  0  0
   33.0876   34.4643   62.6911 C   0  0  0  0  0  0  0  0  0  0  0  0
   32.6131   33.2312   63.0599 C   0  0  0  0  0  0  0  0  0  0  0  0
   31.7423   32.3657   62.2554 C   0  0  0  0  0  0  0  0  0  0  0  0
   32.5129   31.1887   61.5661 C   0  0  0  0  0  0  0  0  0  0  0  0
   31.7320   32.2942   60.7985 C   0  0  0  0  0  0  0  0  0  0  0  0
   32.9995   32.7105   64.3051 C   0  0  0  0  0  0  0  0  0  0  0  0
   33.8329   33.4025   65.1492 C   0  0  0  0  0  0  0  0  0  0  0  0
   34.3000   34.6353   64.7648 C   0  0  0  0  0  0  0  0  0  0  0  0
   33.9203   35.1626   63.5265 C   0  0  0  0  0  0  0  0  0  0  0  0
  1  2  1  0
  2  3  2  0
  3  4  1  0
  4  5  2  0
  5  6  1  0
  6  7  2  0
  6  8  1  0
  8  9  1  0
  9 10  2  0
 10 11  1  0
 11 12  1  0
 12 13  1  0
 10 14  1  0
 14 15  2  0
 15 16  1  0
 16 17  2  0
  7  2  1  0
 17  9  1  0
 17  5  1  0
 13 11  1  0
M  END
$$$$
