
     RDKit          3D

 17 20  0  0  0  0  0  0  0  0999 V2000
   34.8240   39.9548   60.3538 C   0  0  0  0  0  0  0  0  0  0  0  0
   34.7071   38.7922   61.2734 C   0  0  0  0  0  0  0  0  0  0  0  0
   35.3834   38.7993   62.4632 C   0  0  0  0  0  0  0  0  0  0  0  0
   35.2629   37.7169   63.2988 C   0  0  0  0  0  0  0  0  0  0  0  0
   34.4580   36.6798   62.8793 C   0  0  0  0  0  0  0  0  0  0  0  0
   33.7811   36.6864   61.6752 C   0  0  0  0  0  0  0  0  0  0  0  0
   33.9298   37.7592   60.8988 N   0  0  0  0  0  0  0  0  0  0  0  0
   33.0712   35.5310   61.5386 N   0  0  0  0  0  0  0  0  0  0  0  0
   33.2844   34.7869   62.6354 C   0  0  0  0  0  0  0  0  0  0  0  0
   32.8067   33.5540   63.0008 C   0  0  0  0  0  0  0  0  0  0  0  0
   31.9223   32.6991   62.1998 C   0  0  0  0  0  0  0  0  0  0  0  0
   32.6274   31.3994   61.6821 C   0  0  0  0  0  0  0  0  0  0  0  0
   32.0197   32.4945   60.7588 C   0  0  0  0  0  0  0  0  0  0  0  0
   33.2033   33.0225   64.2382 C   0  0  0  0  0  0  0  0  0  0  0  0
   34.0497   33.7039   65.0780 C   0  0  0  0  0  0  0  0  0  0  0  0
   34.5198   34.9367   64.6971 C   0  0  0  0  0  0  0  0  0  0  0  0
   34.1299   35.4747   63.4666 C   0  0  0  0  0  0  0  0  0  0  0  0
  1  2  1  0
  2  3  2  0
  3  4  1  0
  4  5  2  0
  5  6  1  0
  6  7  2  0
  6  8  1  0
  8  9  1  0
  9 10  2  0
 10 11  1  0
 11 12  1  0
 12 13  1  0
 10 14  1  0
 14 15  2  0
 15 16  1  0
 16 17  2  0
  7  2  1  0
 17  9  1  0
 17  5  1  0
 13 11  1  0
M  END
$$$$
