
     RDKit          3D

 17 20  0  0  0  0  0  0  0  0999 V2000
   44.6699   36.8086   75.3261 C   0  0  0  0  0  0  0  0  0  0  0  0
   44.0712   36.2062   76.5466 C   0  0  0  0  0  0  0  0  0  0  0  0
   42.7115   36.2015   76.7022 C   0  0  0  0  0  0  0  0  0  0  0  0
   42.1775   35.6408   77.8357 C   0  0  0  0  0  0  0  0  0  0  0  0
   43.0573   35.1122   78.7553 C   0  0  0  0  0  0  0  0  0  0  0  0
   44.4281   35.1240   78.5850 C   0  0  0  0  0  0  0  0  0  0  0  0
   44.8982   35.6794   77.4686 N   0  0  0  0  0  0  0  0  0  0  0  0
   45.0312   34.5328   79.6547 N   0  0  0  0  0  0  0  0  0  0  0  0
   44.0679   34.1443   80.5052 C   0  0  0  0  0  0  0  0  0  0  0  0
   44.1329   33.5019   81.7155 C   0  0  0  0  0  0  0  0  0  0  0  0
   45.3596   33.1009   82.4149 C   0  0  0  0  0  0  0  0  0  0  0  0
   45.4848   33.7283   83.8449 C   0  0  0  0  0  0  0  0  0  0  0  0
   46.4996   33.9684   82.6901 C   0  0  0  0  0  0  0  0  0  0  0  0
   42.9331   33.2107   82.3838 C   0  0  0  0  0  0  0  0  0  0  0  0
   41.7122   33.5530   81.8563 C   0  0  0  0  0  0  0  0  0  0  0  0
   41.6644   34.1965   80.6442 C   0  0  0  0  0  0  0  0  0  0  0  0
   42.8541   34.4904   79.9706 C   0  0  0  0  0  0  0  0  0  0  0  0
  1  2  1  0
  2  3  2  0
  3  4  1  0
  4  5  2  0
  5  6  1  0
  6  7  2  0
  6  8  1  0
  8  9  1  0
  9 10  2  0
 10 11  1  0
 11 12  1  0
 12 13  1  0
 10 14  1  0
 14 15  2  0
 15 16  1  0
 16 17  2  0
  7  2  1  0
 17  9  1  0
 17  5  1  0
 13 11  1  0
M  END
$$$$
