
     RDKit          3D

 17 20  0  0  0  0  0  0  0  0999 V2000
   34.3980   39.8999   60.3995 C   0  0  0  0  0  0  0  0  0  0  0  0
   34.3055   38.7321   61.3153 C   0  0  0  0  0  0  0  0  0  0  0  0
   34.9811   38.7498   62.5054 C   0  0  0  0  0  0  0  0  0  0  0  0
   34.8834   37.6625   63.3375 C   0  0  0  0  0  0  0  0  0  0  0  0
   34.1008   36.6099   62.9146 C   0  0  0  0  0  0  0  0  0  0  0  0
   33.4242   36.6059   61.7102 C   0  0  0  0  0  0  0  0  0  0  0  0
   33.5503   37.6840   60.9373 N   0  0  0  0  0  0  0  0  0  0  0  0
   32.7391   35.4361   61.5697 N   0  0  0  0  0  0  0  0  0  0  0  0
   32.9676   34.6933   62.6643 C   0  0  0  0  0  0  0  0  0  0  0  0
   32.5161   33.4494   63.0256 C   0  0  0  0  0  0  0  0  0  0  0  0
   31.6503   32.5784   62.2217 C   0  0  0  0  0  0  0  0  0  0  0  0
   32.3574   31.2548   61.7719 C   0  0  0  0  0  0  0  0  0  0  0  0
   31.7961   32.3256   60.7924 C   0  0  0  0  0  0  0  0  0  0  0  0
   32.9236   32.9225   64.2615 C   0  0  0  0  0  0  0  0  0  0  0  0
   33.7551   33.6191   65.1037 C   0  0  0  0  0  0  0  0  0  0  0  0
   34.1991   34.8627   64.7268 C   0  0  0  0  0  0  0  0  0  0  0  0
   33.7982   35.3962   63.4979 C   0  0  0  0  0  0  0  0  0  0  0  0
  1  2  1  0
  2  3  2  0
  3  4  1  0
  4  5  2  0
  5  6  1  0
  6  7  2  0
  6  8  1  0
  8  9  1  0
  9 10  2  0
 10 11  1  0
 11 12  1  0
 12 13  1  0
 10 14  1  0
 14 15  2  0
 15 16  1  0
 16 17  2  0
  7  2  1  0
 17  9  1  0
 17  5  1  0
 13 11  1  0
M  END
$$$$
