
     RDKit          3D

 17 20  0  0  0  0  0  0  0  0999 V2000
   35.2355   29.0978   92.0244 C   0  0  0  0  0  0  0  0  0  0  0  0
   36.3382   29.6261   91.1782 C   0  0  0  0  0  0  0  0  0  0  0  0
   37.2767   30.4558   91.7294 C   0  0  0  0  0  0  0  0  0  0  0  0
   38.2870   30.9333   90.9322 C   0  0  0  0  0  0  0  0  0  0  0  0
   38.2904   30.5406   89.6111 C   0  0  0  0  0  0  0  0  0  0  0  0
   37.3361   29.7022   89.0683 C   0  0  0  0  0  0  0  0  0  0  0  0
   36.3757   29.2651   89.8821 N   0  0  0  0  0  0  0  0  0  0  0  0
   37.6013   29.4952   87.7476 N   0  0  0  0  0  0  0  0  0  0  0  0
   38.7088   30.1881   87.4384 C   0  0  0  0  0  0  0  0  0  0  0  0
   39.3984   30.3152   86.2594 C   0  0  0  0  0  0  0  0  0  0  0  0
   39.0312   29.7071   84.9749 C   0  0  0  0  0  0  0  0  0  0  0  0
   38.9951   30.7372   83.7952 C   0  0  0  0  0  0  0  0  0  0  0  0
   37.7683   29.9081   84.2731 C   0  0  0  0  0  0  0  0  0  0  0  0
   40.5517   31.1155   86.2418 C   0  0  0  0  0  0  0  0  0  0  0  0
   40.9960   31.7655   87.3670 C   0  0  0  0  0  0  0  0  0  0  0  0
   40.2938   31.6287   88.5391 C   0  0  0  0  0  0  0  0  0  0  0  0
   39.1440   30.8332   88.5668 C   0  0  0  0  0  0  0  0  0  0  0  0
  1  2  1  0
  2  3  2  0
  3  4  1  0
  4  5  2  0
  5  6  1  0
  6  7  2  0
  6  8  1  0
  8  9  1  0
  9 10  2  0
 10 11  1  0
 11 12  1  0
 12 13  1  0
 10 14  1  0
 14 15  2  0
 15 16  1  0
 16 17  2  0
  7  2  1  0
 17  9  1  0
 17  5  1  0
 13 11  1  0
M  END
$$$$
