
     RDKit          3D

 17 20  0  0  0  0  0  0  0  0999 V2000
   31.0416   32.1846   61.1196 C   0  0  0  0  0  0  0  0  0  0  0  0
   31.8823   33.2047   61.8004 C   0  0  0  0  0  0  0  0  0  0  0  0
   32.3549   32.9606   63.0615 C   0  0  0  0  0  0  0  0  0  0  0  0
   33.1294   33.9144   63.6735 C   0  0  0  0  0  0  0  0  0  0  0  0
   33.3840   35.0711   62.9688 C   0  0  0  0  0  0  0  0  0  0  0  0
   32.9001   35.3039   61.6961 C   0  0  0  0  0  0  0  0  0  0  0  0
   32.1532   34.3483   61.1443 N   0  0  0  0  0  0  0  0  0  0  0  0
   33.3158   36.5268   61.2609 N   0  0  0  0  0  0  0  0  0  0  0  0
   34.0566   37.0784   62.2352 C   0  0  0  0  0  0  0  0  0  0  0  0
   34.7103   38.2824   62.3049 C   0  0  0  0  0  0  0  0  0  0  0  0
   34.7148   39.3232   61.2698 C   0  0  0  0  0  0  0  0  0  0  0  0
   33.3558   40.0960   61.1695 C   0  0  0  0  0  0  0  0  0  0  0  0
   33.9813   39.2679   60.0101 C   0  0  0  0  0  0  0  0  0  0  0  0
   35.4286   38.5872   63.4719 C   0  0  0  0  0  0  0  0  0  0  0  0
   35.4877   37.7150   64.5311 C   0  0  0  0  0  0  0  0  0  0  0  0
   34.8270   36.5142   64.4459 C   0  0  0  0  0  0  0  0  0  0  0  0
   34.1092   36.2013   63.2872 C   0  0  0  0  0  0  0  0  0  0  0  0
  1  2  1  0
  2  3  2  0
  3  4  1  0
  4  5  2  0
  5  6  1  0
  6  7  2  0
  6  8  1  0
  8  9  1  0
  9 10  2  0
 10 11  1  0
 11 12  1  0
 12 13  1  0
 10 14  1  0
 14 15  2  0
 15 16  1  0
 16 17  2  0
  7  2  1  0
 17  9  1  0
 17  5  1  0
 13 11  1  0
M  END
$$$$
