
     RDKit          3D

 17 20  0  0  0  0  0  0  0  0999 V2000
   34.2891   39.9121   60.3861 C   0  0  0  0  0  0  0  0  0  0  0  0
   34.2613   38.7346   61.2937 C   0  0  0  0  0  0  0  0  0  0  0  0
   34.9704   38.7648   62.4639 C   0  0  0  0  0  0  0  0  0  0  0  0
   34.9324   37.6681   63.2886 C   0  0  0  0  0  0  0  0  0  0  0  0
   34.1725   36.5939   62.8789 C   0  0  0  0  0  0  0  0  0  0  0  0
   33.4616   36.5775   61.6946 C   0  0  0  0  0  0  0  0  0  0  0  0
   33.5300   37.6654   60.9281 N   0  0  0  0  0  0  0  0  0  0  0  0
   32.8110   35.3871   61.5634 N   0  0  0  0  0  0  0  0  0  0  0  0
   33.0954   34.6433   62.6442 C   0  0  0  0  0  0  0  0  0  0  0  0
   32.6953   33.3824   63.0071 C   0  0  0  0  0  0  0  0  0  0  0  0
   31.8352   32.4901   62.2206 C   0  0  0  0  0  0  0  0  0  0  0  0
   32.5433   31.1520   61.8173 C   0  0  0  0  0  0  0  0  0  0  0  0
   31.9945   32.1947   60.8010 C   0  0  0  0  0  0  0  0  0  0  0  0
   33.1555   32.8592   64.2259 C   0  0  0  0  0  0  0  0  0  0  0  0
   33.9882   33.5758   65.0500 C   0  0  0  0  0  0  0  0  0  0  0  0
   34.3803   34.8363   64.6717 C   0  0  0  0  0  0  0  0  0  0  0  0
   33.9266   35.3663   63.4597 C   0  0  0  0  0  0  0  0  0  0  0  0
  1  2  1  0
  2  3  2  0
  3  4  1  0
  4  5  2  0
  5  6  1  0
  6  7  2  0
  6  8  1  0
  8  9  1  0
  9 10  2  0
 10 11  1  0
 11 12  1  0
 12 13  1  0
 10 14  1  0
 14 15  2  0
 15 16  1  0
 16 17  2  0
  7  2  1  0
 17  9  1  0
 17  5  1  0
 13 11  1  0
M  END
$$$$
