
     RDKit          3D

 17 20  0  0  0  0  0  0  0  0999 V2000
   34.6259   39.7713   60.4412 C   0  0  0  0  0  0  0  0  0  0  0  0
   34.4904   38.5964   61.3424 C   0  0  0  0  0  0  0  0  0  0  0  0
   35.1437   38.5866   62.5450 C   0  0  0  0  0  0  0  0  0  0  0  0
   35.0064   37.4930   63.3633 C   0  0  0  0  0  0  0  0  0  0  0  0
   34.2090   36.4625   62.9143 C   0  0  0  0  0  0  0  0  0  0  0  0
   33.5554   36.4861   61.6976 C   0  0  0  0  0  0  0  0  0  0  0  0
   33.7198   37.5693   60.9389 N   0  0  0  0  0  0  0  0  0  0  0  0
   32.8475   35.3334   61.5315 N   0  0  0  0  0  0  0  0  0  0  0  0
   33.0390   34.5742   62.6221 C   0  0  0  0  0  0  0  0  0  0  0  0
   32.5535   33.3369   62.9613 C   0  0  0  0  0  0  0  0  0  0  0  0
   31.6841   32.4938   62.1319 C   0  0  0  0  0  0  0  0  0  0  0  0
   32.3028   31.0876   61.8250 C   0  0  0  0  0  0  0  0  0  0  0  0
   31.9292   32.1372   60.7388 C   0  0  0  0  0  0  0  0  0  0  0  0
   32.9258   32.7883   64.1988 C   0  0  0  0  0  0  0  0  0  0  0  0
   33.7564   33.4573   65.0639 C   0  0  0  0  0  0  0  0  0  0  0  0
   34.2345   34.6947   64.7090 C   0  0  0  0  0  0  0  0  0  0  0  0
   33.8688   35.2498   63.4786 C   0  0  0  0  0  0  0  0  0  0  0  0
  1  2  1  0
  2  3  2  0
  3  4  1  0
  4  5  2  0
  5  6  1  0
  6  7  2  0
  6  8  1  0
  8  9  1  0
  9 10  2  0
 10 11  1  0
 11 12  1  0
 12 13  1  0
 10 14  1  0
 14 15  2  0
 15 16  1  0
 16 17  2  0
  7  2  1  0
 17  9  1  0
 17  5  1  0
 13 11  1  0
M  END
$$$$
