
     RDKit          3D

 17 20  0  0  0  0  0  0  0  0999 V2000
   34.4970   39.8388   60.2456 C   0  0  0  0  0  0  0  0  0  0  0  0
   34.4284   38.6886   61.1854 C   0  0  0  0  0  0  0  0  0  0  0  0
   35.1237   38.7343   62.3634 C   0  0  0  0  0  0  0  0  0  0  0  0
   35.0478   37.6628   63.2180 C   0  0  0  0  0  0  0  0  0  0  0  0
   34.2659   36.5967   62.8289 C   0  0  0  0  0  0  0  0  0  0  0  0
   33.5694   36.5644   61.6364 C   0  0  0  0  0  0  0  0  0  0  0  0
   33.6747   37.6281   60.8407 N   0  0  0  0  0  0  0  0  0  0  0  0
   32.8905   35.3874   61.5302 N   0  0  0  0  0  0  0  0  0  0  0  0
   33.1428   34.6677   62.6351 C   0  0  0  0  0  0  0  0  0  0  0  0
   32.7065   33.4280   63.0281 C   0  0  0  0  0  0  0  0  0  0  0  0
   31.8336   32.5354   62.2559 C   0  0  0  0  0  0  0  0  0  0  0  0
   32.5008   31.1566   61.9273 C   0  0  0  0  0  0  0  0  0  0  0  0
   32.0179   32.1750   60.8545 C   0  0  0  0  0  0  0  0  0  0  0  0
   33.1384   32.9282   64.2669 C   0  0  0  0  0  0  0  0  0  0  0  0
   33.9788   33.6469   65.0813 C   0  0  0  0  0  0  0  0  0  0  0  0
   34.4073   34.8860   64.6728 C   0  0  0  0  0  0  0  0  0  0  0  0
   33.9820   35.3925   63.4407 C   0  0  0  0  0  0  0  0  0  0  0  0
  1  2  1  0
  2  3  2  0
  3  4  1  0
  4  5  2  0
  5  6  1  0
  6  7  2  0
  6  8  1  0
  8  9  1  0
  9 10  2  0
 10 11  1  0
 11 12  1  0
 12 13  1  0
 10 14  1  0
 14 15  2  0
 15 16  1  0
 16 17  2  0
  7  2  1  0
 17  9  1  0
 17  5  1  0
 13 11  1  0
M  END
$$$$
