
     RDKit          3D

 10  9  0  0  0  0  0  0  0  0999 V2000
   14.8771    1.0462  -39.8793 O   0  0  0  0  0  0  0  0  0  0  0  0
   15.5527    1.6030  -38.9800 C   0  0  0  0  0  0  0  0  0  0  0  0
   15.1065    2.7924  -38.4610 O   0  0  0  0  0  0  0  0  0  0  0  0
   16.7975    0.9456  -38.5261 C   0  0  0  0  0  0  0  0  0  0  0  0
   17.4139    1.7136  -37.4476 N   0  0  0  0  0  4  0  0  0  0  0  0
   18.5881    0.9929  -37.0358 C   0  0  0  0  0  0  0  0  0  0  0  0
   19.5129    1.8041  -35.7302 P   0  0  0  0  0  5  0  0  0  0  0  0
   19.0879    1.1823  -34.4108 O   0  0  0  0  0  0  0  0  0  0  0  0
   21.1765    1.6223  -35.9860 O   0  0  0  0  0  0  0  0  0  0  0  0
   19.0917    3.4635  -35.7673 O   0  0  0  0  0  0  0  0  0  0  0  0
  1  2  2  0
  2  3  1  0
  2  4  1  0
  4  5  1  0
  5  6  1  0
  6  7  1  0
  7  8  2  0
  7  9  1  0
  7 10  1  0
M  CHG  1   5   1
M  END
$$$$
