
     RDKit          3D

 10  9  0  0  0  0  0  0  0  0999 V2000
   -0.4034   -4.0004   -3.4535 O   0  0  0  0  0  0  0  0  0  0  0  0
   -0.4371   -2.8137   -3.8607 C   0  0  0  0  0  0  0  0  0  0  0  0
    0.7447   -2.1892   -4.1710 O   0  0  0  0  0  0  0  0  0  0  0  0
   -1.7529   -2.1495   -3.9849 C   0  0  0  0  0  0  0  0  0  0  0  0
   -1.5863   -0.7727   -4.4425 N   0  0  0  0  0  4  0  0  0  0  0  0
   -2.9038   -0.2163   -4.5911 C   0  0  0  0  0  0  0  0  0  0  0  0
   -2.9090    1.5342   -4.9826 P   0  0  0  0  0  5  0  0  0  0  0  0
   -1.6699    2.1497   -4.3551 O   0  0  0  0  0  0  0  0  0  0  0  0
   -2.9249    1.7629   -6.6600 O   0  0  0  0  0  0  0  0  0  0  0  0
   -4.3225    2.2046   -4.2859 O   0  0  0  0  0  0  0  0  0  0  0  0
  1  2  2  0
  2  3  1  0
  2  4  1  0
  4  5  1  0
  5  6  1  0
  6  7  1  0
  7  8  2  0
  7  9  1  0
  7 10  1  0
M  CHG  1   5   1
M  END
$$$$
