
     RDKit          3D

 10  9  0  0  0  0  0  0  0  0999 V2000
   20.6658    0.9710  -42.7524 O   0  0  0  0  0  0  0  0  0  0  0  0
   21.0716    2.0662  -42.2928 C   0  0  0  0  0  0  0  0  0  0  0  0
   22.4116    2.3538  -42.3607 O   0  0  0  0  0  0  0  0  0  0  0  0
   20.0808    2.9912  -41.7008 C   0  0  0  0  0  0  0  0  0  0  0  0
   20.7346    4.2182  -41.2538 N   0  0  0  0  0  4  0  0  0  0  0  0
   19.7134    5.0561  -40.6857 C   0  0  0  0  0  0  0  0  0  0  0  0
   20.3333    6.6052  -40.0272 P   0  0  0  0  0  5  0  0  0  0  0  0
   19.6816    7.7319  -40.8107 O   0  0  0  0  0  0  0  0  0  0  0  0
   19.9838    6.7251  -38.3750 O   0  0  0  0  0  0  0  0  0  0  0  0
   22.0284    6.6164  -40.2703 O   0  0  0  0  0  0  0  0  0  0  0  0
  1  2  2  0
  2  3  1  0
  2  4  1  0
  4  5  1  0
  5  6  1  0
  6  7  1  0
  7  8  2  0
  7  9  1  0
  7 10  1  0
M  CHG  1   5   1
M  END
$$$$
