
     RDKit          3D

 10  9  0  0  0  0  0  0  0  0999 V2000
   14.9099    1.1265  -39.9152 O   0  0  0  0  0  0  0  0  0  0  0  0
   15.5440    1.6181  -38.9501 C   0  0  0  0  0  0  0  0  0  0  0  0
   15.0352    2.7278  -38.3235 O   0  0  0  0  0  0  0  0  0  0  0  0
   16.8098    0.9730  -38.5382 C   0  0  0  0  0  0  0  0  0  0  0  0
   17.3932    1.6787  -37.4004 N   0  0  0  0  0  4  0  0  0  0  0  0
   18.6099    0.9927  -37.0588 C   0  0  0  0  0  0  0  0  0  0  0  0
   19.5417    1.7845  -35.7464 P   0  0  0  0  0  5  0  0  0  0  0  0
   19.2385    3.2722  -35.7998 O   0  0  0  0  0  0  0  0  0  0  0  0
   19.1203    1.1264  -34.2446 O   0  0  0  0  0  0  0  0  0  0  0  0
   21.2011    1.5053  -36.0642 O   0  0  0  0  0  0  0  0  0  0  0  0
  1  2  2  0
  2  3  1  0
  2  4  1  0
  4  5  1  0
  5  6  1  0
  6  7  1  0
  7  8  2  0
  7  9  1  0
  7 10  1  0
M  CHG  1   5   1
M  END
$$$$
