
     RDKit          3D

 10  9  0  0  0  0  0  0  0  0999 V2000
   14.9735    1.2311  -39.9791 O   0  0  0  0  0  0  0  0  0  0  0  0
   15.5575    1.6588  -38.9538 C   0  0  0  0  0  0  0  0  0  0  0  0
   14.9821    2.6846  -38.2469 O   0  0  0  0  0  0  0  0  0  0  0  0
   16.8386    1.0326  -38.5609 C   0  0  0  0  0  0  0  0  0  0  0  0
   17.3925    1.7015  -37.3868 N   0  0  0  0  0  4  0  0  0  0  0  0
   18.6200    1.0283  -37.0589 C   0  0  0  0  0  0  0  0  0  0  0  0
   19.5777    1.8516  -35.7850 P   0  0  0  0  0  5  0  0  0  0  0  0
   21.0357    1.4778  -35.9916 O   0  0  0  0  0  0  0  0  0  0  0  0
   19.3561    3.5277  -35.8718 O   0  0  0  0  0  0  0  0  0  0  0  0
   19.0226    1.2640  -34.2753 O   0  0  0  0  0  0  0  0  0  0  0  0
  1  2  2  0
  2  3  1  0
  2  4  1  0
  4  5  1  0
  5  6  1  0
  6  7  1  0
  7  8  2  0
  7  9  1  0
  7 10  1  0
M  CHG  1   5   1
M  END
$$$$
