
     RDKit          3D

 10  9  0  0  0  0  0  0  0  0999 V2000
   -0.3720   -3.9608   -3.5047 O   0  0  0  0  0  0  0  0  0  0  0  0
   -0.4161   -2.7568   -3.8566 C   0  0  0  0  0  0  0  0  0  0  0  0
    0.7594   -2.1114   -4.1476 O   0  0  0  0  0  0  0  0  0  0  0  0
   -1.7367   -2.0958   -3.9392 C   0  0  0  0  0  0  0  0  0  0  0  0
   -1.5833   -0.7032   -4.3513 N   0  0  0  0  0  4  0  0  0  0  0  0
   -2.9061   -0.1550   -4.4824 C   0  0  0  0  0  0  0  0  0  0  0  0
   -2.9275    1.5985   -4.8595 P   0  0  0  0  0  5  0  0  0  0  0  0
   -4.2429    2.1627   -4.3500 O   0  0  0  0  0  0  0  0  0  0  0  0
   -1.6071    2.3730   -4.1365 O   0  0  0  0  0  0  0  0  0  0  0  0
   -2.8363    1.7512   -6.5627 O   0  0  0  0  0  0  0  0  0  0  0  0
  1  2  2  0
  2  3  1  0
  2  4  1  0
  4  5  1  0
  5  6  1  0
  6  7  1  0
  7  8  2  0
  7  9  1  0
  7 10  1  0
M  CHG  1   5   1
M  END
$$$$
