
     RDKit          3D

 10  9  0  0  0  0  0  0  0  0999 V2000
   -0.3186   -4.0187   -3.4734 O   0  0  0  0  0  0  0  0  0  0  0  0
   -0.3945   -2.8271   -3.8602 C   0  0  0  0  0  0  0  0  0  0  0  0
    0.7663   -2.1431   -4.1205 O   0  0  0  0  0  0  0  0  0  0  0  0
   -1.7352   -2.2217   -4.0152 C   0  0  0  0  0  0  0  0  0  0  0  0
   -1.6179   -0.8251   -4.4256 N   0  0  0  0  0  4  0  0  0  0  0  0
   -2.9546   -0.3108   -4.5545 C   0  0  0  0  0  0  0  0  0  0  0  0
   -3.0220    1.4500   -4.8897 P   0  0  0  0  0  5  0  0  0  0  0  0
   -4.3280    1.9771   -4.3200 O   0  0  0  0  0  0  0  0  0  0  0  0
   -1.6905    2.2332   -4.1971 O   0  0  0  0  0  0  0  0  0  0  0  0
   -2.9961    1.6428   -6.5911 O   0  0  0  0  0  0  0  0  0  0  0  0
  1  2  2  0
  2  3  1  0
  2  4  1  0
  4  5  1  0
  5  6  1  0
  6  7  1  0
  7  8  2  0
  7  9  1  0
  7 10  1  0
M  CHG  1   5   1
M  END
$$$$
