
     RDKit          3D

 10  9  0  0  0  0  0  0  0  0999 V2000
   -0.4167   -4.0446   -3.6616 O   0  0  0  0  0  0  0  0  0  0  0  0
   -0.4633   -2.8156   -3.9121 C   0  0  0  0  0  0  0  0  0  0  0  0
    0.7114   -2.1083   -3.9644 O   0  0  0  0  0  0  0  0  0  0  0  0
   -1.7859   -2.1933   -4.1385 C   0  0  0  0  0  0  0  0  0  0  0  0
   -1.6410   -0.7567   -4.3574 N   0  0  0  0  0  4  0  0  0  0  0  0
   -2.9460   -0.2466   -4.6808 C   0  0  0  0  0  0  0  0  0  0  0  0
   -2.9688    1.5137   -5.0250 P   0  0  0  0  0  5  0  0  0  0  0  0
   -3.0931    1.6868   -6.5292 O   0  0  0  0  0  0  0  0  0  0  0  0
   -4.2561    2.2561   -4.2139 O   0  0  0  0  0  0  0  0  0  0  0  0
   -1.4800    2.1565   -4.4747 O   0  0  0  0  0  0  0  0  0  0  0  0
  1  2  2  0
  2  3  1  0
  2  4  1  0
  4  5  1  0
  5  6  1  0
  6  7  1  0
  7  8  2  0
  7  9  1  0
  7 10  1  0
M  CHG  1   5   1
M  END
$$$$
