
     RDKit          3D

 10  9  0  0  0  0  0  0  0  0999 V2000
   14.9225    1.1023  -39.8474 O   0  0  0  0  0  0  0  0  0  0  0  0
   15.5971    1.6737  -38.9565 C   0  0  0  0  0  0  0  0  0  0  0  0
   15.1586    2.8791  -38.4687 O   0  0  0  0  0  0  0  0  0  0  0  0
   16.8324    1.0155  -38.4783 C   0  0  0  0  0  0  0  0  0  0  0  0
   17.4435    1.7980  -37.4073 N   0  0  0  0  0  4  0  0  0  0  0  0
   18.6537    1.1200  -37.0288 C   0  0  0  0  0  0  0  0  0  0  0  0
   19.5723    1.9514  -35.7317 P   0  0  0  0  0  5  0  0  0  0  0  0
   19.2122    3.4264  -35.7859 O   0  0  0  0  0  0  0  0  0  0  0  0
   19.1962    1.2835  -34.2222 O   0  0  0  0  0  0  0  0  0  0  0  0
   21.2367    1.7340  -36.0710 O   0  0  0  0  0  0  0  0  0  0  0  0
  1  2  2  0
  2  3  1  0
  2  4  1  0
  4  5  1  0
  5  6  1  0
  6  7  1  0
  7  8  2  0
  7  9  1  0
  7 10  1  0
M  CHG  1   5   1
M  END
$$$$
