
     RDKit          3D

 10  9  0  0  0  0  0  0  0  0999 V2000
   -0.3794   -3.8910   -3.4507 O   0  0  0  0  0  0  0  0  0  0  0  0
   -0.4049   -2.6813   -3.7839 C   0  0  0  0  0  0  0  0  0  0  0  0
    0.7849   -2.0207   -3.9602 O   0  0  0  0  0  0  0  0  0  0  0  0
   -1.7199   -2.0300   -3.9694 C   0  0  0  0  0  0  0  0  0  0  0  0
   -1.5453   -0.6287   -4.3418 N   0  0  0  0  0  4  0  0  0  0  0  0
   -2.8599   -0.0721   -4.5139 C   0  0  0  0  0  0  0  0  0  0  0  0
   -2.8567    1.6705   -4.9391 P   0  0  0  0  0  5  0  0  0  0  0  0
   -2.9530    1.7752   -6.4516 O   0  0  0  0  0  0  0  0  0  0  0  0
   -4.1493    2.4632   -4.1860 O   0  0  0  0  0  0  0  0  0  0  0  0
   -1.3704    2.3223   -4.3925 O   0  0  0  0  0  0  0  0  0  0  0  0
  1  2  2  0
  2  3  1  0
  2  4  1  0
  4  5  1  0
  5  6  1  0
  6  7  1  0
  7  8  2  0
  7  9  1  0
  7 10  1  0
M  CHG  1   5   1
M  END
$$$$
