
     RDKit          3D

 10  9  0  0  0  0  0  0  0  0999 V2000
   -0.3658   -3.9605   -3.5062 O   0  0  0  0  0  0  0  0  0  0  0  0
   -0.4040   -2.7463   -3.8216 C   0  0  0  0  0  0  0  0  0  0  0  0
    0.7783   -2.0641   -3.9623 O   0  0  0  0  0  0  0  0  0  0  0  0
   -1.7253   -2.1135   -4.0252 C   0  0  0  0  0  0  0  0  0  0  0  0
   -1.5651   -0.7097   -4.3947 N   0  0  0  0  0  4  0  0  0  0  0  0
   -2.8855   -0.1549   -4.5224 C   0  0  0  0  0  0  0  0  0  0  0  0
   -2.8991    1.5974   -4.9054 P   0  0  0  0  0  5  0  0  0  0  0  0
   -4.1665    2.1884   -4.3117 O   0  0  0  0  0  0  0  0  0  0  0  0
   -1.5189    2.3490   -4.2758 O   0  0  0  0  0  0  0  0  0  0  0  0
   -2.9191    1.7426   -6.6116 O   0  0  0  0  0  0  0  0  0  0  0  0
  1  2  2  0
  2  3  1  0
  2  4  1  0
  4  5  1  0
  5  6  1  0
  6  7  1  0
  7  8  2  0
  7  9  1  0
  7 10  1  0
M  CHG  1   5   1
M  END
$$$$
