
     RDKit          3D

 10  9  0  0  0  0  0  0  0  0999 V2000
   -0.4500   -4.0149   -3.5013 O   0  0  0  0  0  0  0  0  0  0  0  0
   -0.4799   -2.8161   -3.8717 C   0  0  0  0  0  0  0  0  0  0  0  0
    0.7053   -2.1803   -4.1440 O   0  0  0  0  0  0  0  0  0  0  0  0
   -1.7950   -2.1505   -3.9955 C   0  0  0  0  0  0  0  0  0  0  0  0
   -1.6236   -0.7567   -4.3963 N   0  0  0  0  0  4  0  0  0  0  0  0
   -2.9395   -0.1928   -4.5311 C   0  0  0  0  0  0  0  0  0  0  0  0
   -2.9393    1.5663   -4.8821 P   0  0  0  0  0  5  0  0  0  0  0  0
   -4.2152    2.1515   -4.3012 O   0  0  0  0  0  0  0  0  0  0  0  0
   -1.5681    2.3005   -4.2136 O   0  0  0  0  0  0  0  0  0  0  0  0
   -2.9273    1.7426   -6.5855 O   0  0  0  0  0  0  0  0  0  0  0  0
  1  2  2  0
  2  3  1  0
  2  4  1  0
  4  5  1  0
  5  6  1  0
  6  7  1  0
  7  8  2  0
  7  9  1  0
  7 10  1  0
M  CHG  1   5   1
M  END
$$$$
