
     RDKit          3D

 10  9  0  0  0  0  0  0  0  0999 V2000
   -0.2098   -3.9960   -3.4987 O   0  0  0  0  0  0  0  0  0  0  0  0
   -0.2903   -2.7664   -3.7370 C   0  0  0  0  0  0  0  0  0  0  0  0
    0.8665   -2.0320   -3.8110 O   0  0  0  0  0  0  0  0  0  0  0  0
   -1.6318   -2.1726   -3.9259 C   0  0  0  0  0  0  0  0  0  0  0  0
   -1.5187   -0.7511   -4.2409 N   0  0  0  0  0  4  0  0  0  0  0  0
   -2.8570   -0.2390   -4.3610 C   0  0  0  0  0  0  0  0  0  0  0  0
   -2.9289    1.5084   -4.7597 P   0  0  0  0  0  5  0  0  0  0  0  0
   -3.0556    1.6312   -6.2686 O   0  0  0  0  0  0  0  0  0  0  0  0
   -4.2380    2.2389   -3.9730 O   0  0  0  0  0  0  0  0  0  0  0  0
   -1.4598    2.2098   -4.2284 O   0  0  0  0  0  0  0  0  0  0  0  0
  1  2  2  0
  2  3  1  0
  2  4  1  0
  4  5  1  0
  5  6  1  0
  6  7  1  0
  7  8  2  0
  7  9  1  0
  7 10  1  0
M  CHG  1   5   1
M  END
$$$$
