
     RDKit          3D

 10  9  0  0  0  0  0  0  0  0999 V2000
   14.9088    1.1623  -39.8129 O   0  0  0  0  0  0  0  0  0  0  0  0
   15.5557    1.7022  -38.8828 C   0  0  0  0  0  0  0  0  0  0  0  0
   15.0332    2.8171  -38.2769 O   0  0  0  0  0  0  0  0  0  0  0  0
   16.8507    1.1063  -38.4881 C   0  0  0  0  0  0  0  0  0  0  0  0
   17.4282    1.8423  -37.3666 N   0  0  0  0  0  4  0  0  0  0  0  0
   18.6460    1.1691  -37.0040 C   0  0  0  0  0  0  0  0  0  0  0  0
   19.5679    1.9934  -35.7047 P   0  0  0  0  0  5  0  0  0  0  0  0
   21.0307    1.6174  -35.8690 O   0  0  0  0  0  0  0  0  0  0  0  0
   19.3512    3.6697  -35.8009 O   0  0  0  0  0  0  0  0  0  0  0  0
   18.9692    1.4095  -34.2104 O   0  0  0  0  0  0  0  0  0  0  0  0
  1  2  2  0
  2  3  1  0
  2  4  1  0
  4  5  1  0
  5  6  1  0
  6  7  1  0
  7  8  2  0
  7  9  1  0
  7 10  1  0
M  CHG  1   5   1
M  END
$$$$
