
     RDKit          3D

 10  9  0  0  0  0  0  0  0  0999 V2000
   -0.3597   -4.0110   -3.6308 O   0  0  0  0  0  0  0  0  0  0  0  0
   -0.4138   -2.7740   -3.8365 C   0  0  0  0  0  0  0  0  0  0  0  0
    0.7560   -2.0569   -3.8552 O   0  0  0  0  0  0  0  0  0  0  0  0
   -1.7395   -2.1533   -4.0484 C   0  0  0  0  0  0  0  0  0  0  0  0
   -1.5934   -0.7302   -4.3424 N   0  0  0  0  0  4  0  0  0  0  0  0
   -2.9193   -0.1883   -4.4680 C   0  0  0  0  0  0  0  0  0  0  0  0
   -2.9504    1.5617   -4.8608 P   0  0  0  0  0  5  0  0  0  0  0  0
   -4.2259    2.1423   -4.2744 O   0  0  0  0  0  0  0  0  0  0  0  0
   -1.5802    2.3314   -4.2312 O   0  0  0  0  0  0  0  0  0  0  0  0
   -2.9666    1.6972   -6.5679 O   0  0  0  0  0  0  0  0  0  0  0  0
  1  2  2  0
  2  3  1  0
  2  4  1  0
  4  5  1  0
  5  6  1  0
  6  7  1  0
  7  8  2  0
  7  9  1  0
  7 10  1  0
M  CHG  1   5   1
M  END
$$$$
