
     RDKit          3D

 10  9  0  0  0  0  0  0  0  0999 V2000
   14.8867    1.1353  -39.8325 O   0  0  0  0  0  0  0  0  0  0  0  0
   15.5228    1.6608  -38.8867 C   0  0  0  0  0  0  0  0  0  0  0  0
   15.0188    2.7962  -38.3036 O   0  0  0  0  0  0  0  0  0  0  0  0
   16.7856    1.0265  -38.4498 C   0  0  0  0  0  0  0  0  0  0  0  0
   17.3930    1.7959  -37.3673 N   0  0  0  0  0  4  0  0  0  0  0  0
   18.5704    1.0821  -36.9529 C   0  0  0  0  0  0  0  0  0  0  0  0
   19.5033    1.9126  -35.6655 P   0  0  0  0  0  5  0  0  0  0  0  0
   19.1678    3.3927  -35.7362 O   0  0  0  0  0  0  0  0  0  0  0  0
   19.1168    1.2681  -34.1485 O   0  0  0  0  0  0  0  0  0  0  0  0
   21.1637    1.6637  -36.0027 O   0  0  0  0  0  0  0  0  0  0  0  0
  1  2  2  0
  2  3  1  0
  2  4  1  0
  4  5  1  0
  5  6  1  0
  6  7  1  0
  7  8  2  0
  7  9  1  0
  7 10  1  0
M  CHG  1   5   1
M  END
$$$$
