
     RDKit          3D

 10  9  0  0  0  0  0  0  0  0999 V2000
   14.8761    1.1650  -39.8852 O   0  0  0  0  0  0  0  0  0  0  0  0
   15.5208    1.6708  -38.9346 C   0  0  0  0  0  0  0  0  0  0  0  0
   15.0041    2.7720  -38.2994 O   0  0  0  0  0  0  0  0  0  0  0  0
   16.8072    1.0511  -38.5484 C   0  0  0  0  0  0  0  0  0  0  0  0
   17.4174    1.7909  -37.4469 N   0  0  0  0  0  4  0  0  0  0  0  0
   18.6064    1.0766  -37.0681 C   0  0  0  0  0  0  0  0  0  0  0  0
   19.5657    1.8954  -35.7926 P   0  0  0  0  0  5  0  0  0  0  0  0
   21.0317    1.5964  -36.0562 O   0  0  0  0  0  0  0  0  0  0  0  0
   19.2673    3.5618  -35.8092 O   0  0  0  0  0  0  0  0  0  0  0  0
   19.0847    1.2284  -34.2906 O   0  0  0  0  0  0  0  0  0  0  0  0
  1  2  2  0
  2  3  1  0
  2  4  1  0
  4  5  1  0
  5  6  1  0
  6  7  1  0
  7  8  2  0
  7  9  1  0
  7 10  1  0
M  CHG  1   5   1
M  END
$$$$
