
     RDKit          3D

 10  9  0  0  0  0  0  0  0  0999 V2000
   14.8916    1.1724  -39.8195 O   0  0  0  0  0  0  0  0  0  0  0  0
   15.5500    1.7107  -38.8964 C   0  0  0  0  0  0  0  0  0  0  0  0
   15.0809    2.8765  -38.3451 O   0  0  0  0  0  0  0  0  0  0  0  0
   16.8001    1.0578  -38.4507 C   0  0  0  0  0  0  0  0  0  0  0  0
   17.4157    1.8229  -37.3696 N   0  0  0  0  0  4  0  0  0  0  0  0
   18.6107    1.1216  -36.9855 C   0  0  0  0  0  0  0  0  0  0  0  0
   19.5512    1.9470  -35.7002 P   0  0  0  0  0  5  0  0  0  0  0  0
   21.0208    1.6452  -35.9397 O   0  0  0  0  0  0  0  0  0  0  0  0
   19.2545    3.6135  -35.7308 O   0  0  0  0  0  0  0  0  0  0  0  0
   19.0467    1.2889  -34.2019 O   0  0  0  0  0  0  0  0  0  0  0  0
  1  2  2  0
  2  3  1  0
  2  4  1  0
  4  5  1  0
  5  6  1  0
  6  7  1  0
  7  8  2  0
  7  9  1  0
  7 10  1  0
M  CHG  1   5   1
M  END
$$$$
