
     RDKit          3D

  9  8  0  0  0  0  0  0  0  0999 V2000
  -22.1174   17.0587   30.0108 C   0  0  0  0  0  0  0  0  0  0  0  0
  -21.2497   16.5534   29.1728 C   0  0  0  0  0  0  0  0  0  0  0  0
  -20.8512   17.4009   28.0047 C   0  0  0  0  0  0  0  0  0  0  0  0
  -20.3119   18.7009   28.4464 C   0  0  0  0  0  0  0  0  0  0  0  0
  -19.5625   18.7084   29.4523 O   0  0  0  0  0  0  0  0  0  0  0  0
  -20.5860   19.8831   27.8201 O   0  0  0  0  0  0  0  0  0  0  0  0
  -20.6681   15.2221   29.3310 C   0  0  0  0  0  0  0  0  0  0  0  0
  -21.0181   14.5204   30.3126 O   0  0  0  0  0  0  0  0  0  0  0  0
  -19.7438   14.6994   28.4407 O   0  0  0  0  0  0  0  0  0  0  0  0
  1  2  2  0
  2  3  1  0
  3  4  1  0
  4  5  2  0
  4  6  1  0
  2  7  1  0
  7  8  2  0
  7  9  1  0
M  END
$$$$
