
     RDKit          3D

  9  8  0  0  0  0  0  0  0  0999 V2000
  -22.1244   16.8800   30.1684 C   0  0  0  0  0  0  0  0  0  0  0  0
  -21.2846   16.5487   29.2221 C   0  0  0  0  0  0  0  0  0  0  0  0
  -21.1105   17.5143   28.0913 C   0  0  0  0  0  0  0  0  0  0  0  0
  -20.2995   18.6766   28.5004 C   0  0  0  0  0  0  0  0  0  0  0  0
  -19.3687   18.4777   29.3174 O   0  0  0  0  0  0  0  0  0  0  0  0
  -20.5107   19.9440   28.0379 O   0  0  0  0  0  0  0  0  0  0  0  0
  -20.5273   15.2989   29.2276 C   0  0  0  0  0  0  0  0  0  0  0  0
  -20.7682   14.4481   30.1201 O   0  0  0  0  0  0  0  0  0  0  0  0
  -19.5514   15.0119   28.2867 O   0  0  0  0  0  0  0  0  0  0  0  0
  1  2  2  0
  2  3  1  0
  3  4  1  0
  4  5  2  0
  4  6  1  0
  2  7  1  0
  7  8  2  0
  7  9  1  0
M  END
$$$$
