
     RDKit          3D

  9  8  0  0  0  0  0  0  0  0999 V2000
  -20.9389   18.6676   29.5191 C   0  0  0  0  0  0  0  0  0  0  0  0
  -21.3574   17.4312   29.4383 C   0  0  0  0  0  0  0  0  0  0  0  0
  -20.9179   16.6353   28.2488 C   0  0  0  0  0  0  0  0  0  0  0  0
  -19.7076   15.8475   28.5497 C   0  0  0  0  0  0  0  0  0  0  0  0
  -18.6028   16.4401   28.5083 O   0  0  0  0  0  0  0  0  0  0  0  0
  -19.7317   14.5197   28.8674 O   0  0  0  0  0  0  0  0  0  0  0  0
  -22.2187   16.8119   30.4434 C   0  0  0  0  0  0  0  0  0  0  0  0
  -23.3455   17.3186   30.6713 O   0  0  0  0  0  0  0  0  0  0  0  0
  -21.8434   15.6857   31.1581 O   0  0  0  0  0  0  0  0  0  0  0  0
  1  2  2  0
  2  3  1  0
  3  4  1  0
  4  5  2  0
  4  6  1  0
  2  7  1  0
  7  8  2  0
  7  9  1  0
M  END
$$$$
