
     RDKit          3D

  9  8  0  0  0  0  0  0  0  0999 V2000
  -20.9717   18.6175   29.5950 C   0  0  0  0  0  0  0  0  0  0  0  0
  -21.3952   17.3925   29.4204 C   0  0  0  0  0  0  0  0  0  0  0  0
  -20.9520   16.6848   28.1778 C   0  0  0  0  0  0  0  0  0  0  0  0
  -19.8315   15.7666   28.4558 C   0  0  0  0  0  0  0  0  0  0  0  0
  -18.6668   16.2126   28.3207 O   0  0  0  0  0  0  0  0  0  0  0  0
  -19.9990   14.4695   28.8486 O   0  0  0  0  0  0  0  0  0  0  0  0
  -22.2654   16.7047   30.3719 C   0  0  0  0  0  0  0  0  0  0  0  0
  -21.7703   15.8249   31.1197 O   0  0  0  0  0  0  0  0  0  0  0  0
  -23.6181   16.9832   30.4843 O   0  0  0  0  0  0  0  0  0  0  0  0
  1  2  2  0
  2  3  1  0
  3  4  1  0
  4  5  2  0
  4  6  1  0
  2  7  1  0
  7  8  2  0
  7  9  1  0
M  END
$$$$
