
     RDKit          3D

  9  8  0  0  0  0  0  0  0  0999 V2000
  -21.9730   17.0078   30.3044 C   0  0  0  0  0  0  0  0  0  0  0  0
  -21.2765   16.6352   29.2621 C   0  0  0  0  0  0  0  0  0  0  0  0
  -21.2589   17.5587   28.0838 C   0  0  0  0  0  0  0  0  0  0  0  0
  -20.0690   18.4303   28.1051 C   0  0  0  0  0  0  0  0  0  0  0  0
  -19.8748   19.1245   29.1317 O   0  0  0  0  0  0  0  0  0  0  0  0
  -19.1791   18.5169   27.0730 O   0  0  0  0  0  0  0  0  0  0  0  0
  -20.5319   15.3790   29.2063 C   0  0  0  0  0  0  0  0  0  0  0  0
  -19.6237   15.2503   28.3477 O   0  0  0  0  0  0  0  0  0  0  0  0
  -20.7862   14.3204   30.0634 O   0  0  0  0  0  0  0  0  0  0  0  0
  1  2  2  0
  2  3  1  0
  3  4  1  0
  4  5  2  0
  4  6  1  0
  2  7  1  0
  7  8  2  0
  7  9  1  0
M  END
$$$$
