
     RDKit          3D

  9  8  0  0  0  0  0  0  0  0999 V2000
  -21.5354   18.5430   29.9320 C   0  0  0  0  0  0  0  0  0  0  0  0
  -21.5018   17.3583   29.3791 C   0  0  0  0  0  0  0  0  0  0  0  0
  -21.1666   17.2915   27.9215 C   0  0  0  0  0  0  0  0  0  0  0  0
  -19.7167   17.4462   27.6983 C   0  0  0  0  0  0  0  0  0  0  0  0
  -19.0109   16.4094   27.7207 O   0  0  0  0  0  0  0  0  0  0  0  0
  -19.1128   18.6497   27.4713 O   0  0  0  0  0  0  0  0  0  0  0  0
  -21.7734   16.1252   30.1148 C   0  0  0  0  0  0  0  0  0  0  0  0
  -22.6588   16.1337   31.0062 O   0  0  0  0  0  0  0  0  0  0  0  0
  -21.0931   14.9432   29.8699 O   0  0  0  0  0  0  0  0  0  0  0  0
  1  2  2  0
  2  3  1  0
  3  4  1  0
  4  5  2  0
  4  6  1  0
  2  7  1  0
  7  8  2  0
  7  9  1  0
M  END
$$$$
