
     RDKit          3D

  9  8  0  0  0  0  0  0  0  0999 V2000
  -21.6103   18.3093   30.0808 C   0  0  0  0  0  0  0  0  0  0  0  0
  -21.4023   17.2614   29.3266 C   0  0  0  0  0  0  0  0  0  0  0  0
  -21.2066   17.4994   27.8615 C   0  0  0  0  0  0  0  0  0  0  0  0
  -19.8140   17.8837   27.5633 C   0  0  0  0  0  0  0  0  0  0  0  0
  -19.4813   19.0746   27.7746 O   0  0  0  0  0  0  0  0  0  0  0  0
  -18.8804   17.0155   27.0740 O   0  0  0  0  0  0  0  0  0  0  0  0
  -21.3551   15.8975   29.8493 C   0  0  0  0  0  0  0  0  0  0  0  0
  -22.1964   15.5509   30.7157 O   0  0  0  0  0  0  0  0  0  0  0  0
  -20.4183   14.9674   29.4281 O   0  0  0  0  0  0  0  0  0  0  0  0
  1  2  2  0
  2  3  1  0
  3  4  1  0
  4  5  2  0
  4  6  1  0
  2  7  1  0
  7  8  2  0
  7  9  1  0
M  END
$$$$
