
     RDKit          3D

  9  8  0  0  0  0  0  0  0  0999 V2000
  -22.1637   16.9150   30.3200 C   0  0  0  0  0  0  0  0  0  0  0  0
  -21.4125   16.6914   29.2730 C   0  0  0  0  0  0  0  0  0  0  0  0
  -21.3813   17.7487   28.2135 C   0  0  0  0  0  0  0  0  0  0  0  0
  -20.0442   18.3633   28.1103 C   0  0  0  0  0  0  0  0  0  0  0  0
  -19.7162   19.1936   28.9914 O   0  0  0  0  0  0  0  0  0  0  0  0
  -19.1567   18.0751   27.1133 O   0  0  0  0  0  0  0  0  0  0  0  0
  -20.6206   15.4750   29.1030 C   0  0  0  0  0  0  0  0  0  0  0  0
  -20.0036   15.2994   28.0227 O   0  0  0  0  0  0  0  0  0  0  0  0
  -20.5213   14.5040   30.0865 O   0  0  0  0  0  0  0  0  0  0  0  0
  1  2  2  0
  2  3  1  0
  3  4  1  0
  4  5  2  0
  4  6  1  0
  2  7  1  0
  7  8  2  0
  7  9  1  0
M  END
$$$$
