
     RDKit          3D

  9  8  0  0  0  0  0  0  0  0999 V2000
  -21.4826   18.9375   29.4875 C   0  0  0  0  0  0  0  0  0  0  0  0
  -21.5041   17.6758   29.1438 C   0  0  0  0  0  0  0  0  0  0  0  0
  -21.0709   17.3374   27.7512 C   0  0  0  0  0  0  0  0  0  0  0  0
  -19.6122   17.1291   27.6805 C   0  0  0  0  0  0  0  0  0  0  0  0
  -19.1710   15.9956   27.9873 O   0  0  0  0  0  0  0  0  0  0  0  0
  -18.7294   18.0995   27.3017 O   0  0  0  0  0  0  0  0  0  0  0  0
  -21.9260   16.6084   30.0484 C   0  0  0  0  0  0  0  0  0  0  0  0
  -21.3324   15.5022   29.9992 O   0  0  0  0  0  0  0  0  0  0  0  0
  -22.9566   16.7657   30.9611 O   0  0  0  0  0  0  0  0  0  0  0  0
  1  2  2  0
  2  3  1  0
  3  4  1  0
  4  5  2  0
  4  6  1  0
  2  7  1  0
  7  8  2  0
  7  9  1  0
M  END
$$$$
