
     RDKit          3D

  9  8  0  0  0  0  0  0  0  0999 V2000
  -22.0238   17.1205   29.9325 C   0  0  0  0  0  0  0  0  0  0  0  0
  -21.1364   16.5945   29.1286 C   0  0  0  0  0  0  0  0  0  0  0  0
  -20.6619   17.4375   27.9859 C   0  0  0  0  0  0  0  0  0  0  0  0
  -20.3144   18.7993   28.4340 C   0  0  0  0  0  0  0  0  0  0  0  0
  -19.6068   18.9100   29.4637 O   0  0  0  0  0  0  0  0  0  0  0  0
  -20.7214   19.9321   27.7891 O   0  0  0  0  0  0  0  0  0  0  0  0
  -20.6033   15.2448   29.3006 C   0  0  0  0  0  0  0  0  0  0  0  0
  -20.9767   14.5671   30.2904 O   0  0  0  0  0  0  0  0  0  0  0  0
  -19.7001   14.6792   28.4149 O   0  0  0  0  0  0  0  0  0  0  0  0
  1  2  2  0
  2  3  1  0
  3  4  1  0
  4  5  2  0
  4  6  1  0
  2  7  1  0
  7  8  2  0
  7  9  1  0
M  END
$$$$
