
     RDKit          3D

  9  8  0  0  0  0  0  0  0  0999 V2000
  -22.1588   16.8731   30.1797 C   0  0  0  0  0  0  0  0  0  0  0  0
  -21.3025   16.5959   29.2309 C   0  0  0  0  0  0  0  0  0  0  0  0
  -21.1716   17.5855   28.1151 C   0  0  0  0  0  0  0  0  0  0  0  0
  -20.3417   18.7372   28.5162 C   0  0  0  0  0  0  0  0  0  0  0  0
  -19.5018   18.5586   29.4306 O   0  0  0  0  0  0  0  0  0  0  0  0
  -20.4426   19.9742   27.9466 O   0  0  0  0  0  0  0  0  0  0  0  0
  -20.4873   15.3831   29.2198 C   0  0  0  0  0  0  0  0  0  0  0  0
  -19.6533   15.2216   28.2941 O   0  0  0  0  0  0  0  0  0  0  0  0
  -20.5958   14.4004   30.1907 O   0  0  0  0  0  0  0  0  0  0  0  0
  1  2  2  0
  2  3  1  0
  3  4  1  0
  4  5  2  0
  4  6  1  0
  2  7  1  0
  7  8  2  0
  7  9  1  0
M  END
$$$$
