
     RDKit          3D

  9  8  0  0  0  0  0  0  0  0999 V2000
  -20.7574   18.5913   30.1986 C   0  0  0  0  0  0  0  0  0  0  0  0
  -21.2338   17.5540   29.5603 C   0  0  0  0  0  0  0  0  0  0  0  0
  -20.9554   17.4656   28.0920 C   0  0  0  0  0  0  0  0  0  0  0  0
  -19.7157   16.7112   27.8270 C   0  0  0  0  0  0  0  0  0  0  0  0
  -19.3520   15.8706   28.6841 O   0  0  0  0  0  0  0  0  0  0  0  0
  -18.9539   16.8820   26.7067 O   0  0  0  0  0  0  0  0  0  0  0  0
  -22.0106   16.5020   30.2127 C   0  0  0  0  0  0  0  0  0  0  0  0
  -23.2121   16.7270   30.5027 O   0  0  0  0  0  0  0  0  0  0  0  0
  -21.4757   15.2628   30.5260 O   0  0  0  0  0  0  0  0  0  0  0  0
  1  2  2  0
  2  3  1  0
  3  4  1  0
  4  5  2  0
  4  6  1  0
  2  7  1  0
  7  8  2  0
  7  9  1  0
M  END
$$$$
