
     RDKit          3D

  9  8  0  0  0  0  0  0  0  0999 V2000
  -22.0394   17.7556   27.8984 C   0  0  0  0  0  0  0  0  0  0  0  0
  -21.0352   17.8075   28.7347 C   0  0  0  0  0  0  0  0  0  0  0  0
  -20.9254   16.7062   29.7430 C   0  0  0  0  0  0  0  0  0  0  0  0
  -20.3924   15.4735   29.1329 C   0  0  0  0  0  0  0  0  0  0  0  0
  -19.5105   15.5961   28.2493 O   0  0  0  0  0  0  0  0  0  0  0  0
  -20.8080   14.2198   29.4796 O   0  0  0  0  0  0  0  0  0  0  0  0
  -20.0391   18.8767   28.7217 C   0  0  0  0  0  0  0  0  0  0  0  0
  -19.7920   19.4617   27.6376 O   0  0  0  0  0  0  0  0  0  0  0  0
  -19.3535   19.2736   29.8585 O   0  0  0  0  0  0  0  0  0  0  0  0
  1  2  2  0
  2  3  1  0
  3  4  1  0
  4  5  2  0
  4  6  1  0
  2  7  1  0
  7  8  2  0
  7  9  1  0
M  END
$$$$
