
     RDKit          3D

  9  8  0  0  0  0  0  0  0  0999 V2000
  -22.0997   17.5218   29.7736 C   0  0  0  0  0  0  0  0  0  0  0  0
  -21.2942   16.6428   29.2361 C   0  0  0  0  0  0  0  0  0  0  0  0
  -20.5037   17.0778   28.0414 C   0  0  0  0  0  0  0  0  0  0  0  0
  -19.9480   18.4310   28.2315 C   0  0  0  0  0  0  0  0  0  0  0  0
  -19.4049   18.6873   29.3328 O   0  0  0  0  0  0  0  0  0  0  0  0
  -19.9958   19.4068   27.2774 O   0  0  0  0  0  0  0  0  0  0  0  0
  -21.1409   15.2823   29.7472 C   0  0  0  0  0  0  0  0  0  0  0  0
  -21.9449   14.8681   30.6192 O   0  0  0  0  0  0  0  0  0  0  0  0
  -20.1426   14.4271   29.3088 O   0  0  0  0  0  0  0  0  0  0  0  0
  1  2  2  0
  2  3  1  0
  3  4  1  0
  4  5  2  0
  4  6  1  0
  2  7  1  0
  7  8  2  0
  7  9  1  0
M  END
$$$$
