
     RDKit          3D

  9  8  0  0  0  0  0  0  0  0999 V2000
  -21.6890   18.3241   29.1417 C   0  0  0  0  0  0  0  0  0  0  0  0
  -21.2996   17.2290   29.7414 C   0  0  0  0  0  0  0  0  0  0  0  0
  -19.8374   16.9095   29.7032 C   0  0  0  0  0  0  0  0  0  0  0  0
  -19.3363   16.8616   28.3166 C   0  0  0  0  0  0  0  0  0  0  0  0
  -19.3202   15.7466   27.7421 O   0  0  0  0  0  0  0  0  0  0  0  0
  -18.8943   17.9600   27.6361 O   0  0  0  0  0  0  0  0  0  0  0  0
  -22.2183   16.3261   30.4315 C   0  0  0  0  0  0  0  0  0  0  0  0
  -23.3882   16.7175   30.6697 O   0  0  0  0  0  0  0  0  0  0  0  0
  -21.8522   15.0523   30.8356 O   0  0  0  0  0  0  0  0  0  0  0  0
  1  2  2  0
  2  3  1  0
  3  4  1  0
  4  5  2  0
  4  6  1  0
  2  7  1  0
  7  8  2  0
  7  9  1  0
M  END
$$$$
