
     RDKit          3D

  9  8  0  0  0  0  0  0  0  0999 V2000
  -21.8417   17.1353   30.3579 C   0  0  0  0  0  0  0  0  0  0  0  0
  -21.2461   16.6830   29.2850 C   0  0  0  0  0  0  0  0  0  0  0  0
  -21.2572   17.5618   28.0729 C   0  0  0  0  0  0  0  0  0  0  0  0
  -20.0206   18.3608   27.9801 C   0  0  0  0  0  0  0  0  0  0  0  0
  -19.8398   19.2547   28.8413 O   0  0  0  0  0  0  0  0  0  0  0  0
  -19.0743   18.1763   27.0131 O   0  0  0  0  0  0  0  0  0  0  0  0
  -20.5853   15.3809   29.2269 C   0  0  0  0  0  0  0  0  0  0  0  0
  -20.9242   14.4920   30.0475 O   0  0  0  0  0  0  0  0  0  0  0  0
  -19.5973   15.0845   28.3016 O   0  0  0  0  0  0  0  0  0  0  0  0
  1  2  2  0
  2  3  1  0
  3  4  1  0
  4  5  2  0
  4  6  1  0
  2  7  1  0
  7  8  2  0
  7  9  1  0
M  END
$$$$
