
     RDKit          3D

  9  8  0  0  0  0  0  0  0  0999 V2000
  -21.7283   17.8855   29.8066 C   0  0  0  0  0  0  0  0  0  0  0  0
  -21.1685   17.0254   28.9958 C   0  0  0  0  0  0  0  0  0  0  0  0
  -20.8556   17.4944   27.6089 C   0  0  0  0  0  0  0  0  0  0  0  0
  -19.4830   18.0276   27.5215 C   0  0  0  0  0  0  0  0  0  0  0  0
  -19.0071   18.5791   28.5427 O   0  0  0  0  0  0  0  0  0  0  0  0
  -18.7143   17.9506   26.3954 O   0  0  0  0  0  0  0  0  0  0  0  0
  -20.8448   15.6545   29.3849 C   0  0  0  0  0  0  0  0  0  0  0  0
  -21.4925   15.1207   30.3197 O   0  0  0  0  0  0  0  0  0  0  0  0
  -19.8501   14.9163   28.7640 O   0  0  0  0  0  0  0  0  0  0  0  0
  1  2  2  0
  2  3  1  0
  3  4  1  0
  4  5  2  0
  4  6  1  0
  2  7  1  0
  7  8  2  0
  7  9  1  0
M  END
$$$$
