
     RDKit          3D

  9  8  0  0  0  0  0  0  0  0999 V2000
  -21.0806   18.6994   29.6329 C   0  0  0  0  0  0  0  0  0  0  0  0
  -21.3732   17.4305   29.5118 C   0  0  0  0  0  0  0  0  0  0  0  0
  -20.8329   16.7138   28.3136 C   0  0  0  0  0  0  0  0  0  0  0  0
  -19.5319   16.0840   28.6085 C   0  0  0  0  0  0  0  0  0  0  0  0
  -18.5297   16.8332   28.6964 O   0  0  0  0  0  0  0  0  0  0  0  0
  -19.3681   14.7403   28.7882 O   0  0  0  0  0  0  0  0  0  0  0  0
  -22.1897   16.7029   30.4811 C   0  0  0  0  0  0  0  0  0  0  0  0
  -23.1796   17.2812   30.9953 O   0  0  0  0  0  0  0  0  0  0  0  0
  -21.9172   15.3978   30.8582 O   0  0  0  0  0  0  0  0  0  0  0  0
  1  2  2  0
  2  3  1  0
  3  4  1  0
  4  5  2  0
  4  6  1  0
  2  7  1  0
  7  8  2  0
  7  9  1  0
M  END
$$$$
