
     RDKit          3D

  9  8  0  0  0  0  0  0  0  0999 V2000
  -21.8198   17.6857   30.0376 C   0  0  0  0  0  0  0  0  0  0  0  0
  -21.2630   16.7173   29.3575 C   0  0  0  0  0  0  0  0  0  0  0  0
  -20.6472   17.0713   28.0396 C   0  0  0  0  0  0  0  0  0  0  0  0
  -19.9585   18.3742   28.1037 C   0  0  0  0  0  0  0  0  0  0  0  0
  -20.3155   19.2614   27.2920 O   0  0  0  0  0  0  0  0  0  0  0  0
  -18.9625   18.6578   28.9938 O   0  0  0  0  0  0  0  0  0  0  0  0
  -21.2209   15.3337   29.8259 C   0  0  0  0  0  0  0  0  0  0  0  0
  -20.4194   14.5336   29.2818 O   0  0  0  0  0  0  0  0  0  0  0  0
  -22.0305   14.8655   30.8484 O   0  0  0  0  0  0  0  0  0  0  0  0
  1  2  2  0
  2  3  1  0
  3  4  1  0
  4  5  2  0
  4  6  1  0
  2  7  1  0
  7  8  2  0
  7  9  1  0
M  END
$$$$
