
     RDKit          3D

  9  8  0  0  0  0  0  0  0  0999 V2000
  -20.4144   18.6021   30.0473 C   0  0  0  0  0  0  0  0  0  0  0  0
  -21.1371   17.5670   29.7056 C   0  0  0  0  0  0  0  0  0  0  0  0
  -20.7138   16.8081   28.4865 C   0  0  0  0  0  0  0  0  0  0  0  0
  -19.9493   15.5993   28.8475 C   0  0  0  0  0  0  0  0  0  0  0  0
  -19.1058   15.1761   28.0211 O   0  0  0  0  0  0  0  0  0  0  0  0
  -20.1136   14.9266   30.0244 O   0  0  0  0  0  0  0  0  0  0  0  0
  -22.3160   17.1339   30.4528 C   0  0  0  0  0  0  0  0  0  0  0  0
  -22.8148   16.0090   30.1993 O   0  0  0  0  0  0  0  0  0  0  0  0
  -22.9086   17.9144   31.4324 O   0  0  0  0  0  0  0  0  0  0  0  0
  1  2  2  0
  2  3  1  0
  3  4  1  0
  4  5  2  0
  4  6  1  0
  2  7  1  0
  7  8  2  0
  7  9  1  0
M  END
$$$$
