
     RDKit          3D

  9  8  0  0  0  0  0  0  0  0999 V2000
  -21.9769   16.9716   30.1266 C   0  0  0  0  0  0  0  0  0  0  0  0
  -21.1295   16.5631   29.2180 C   0  0  0  0  0  0  0  0  0  0  0  0
  -20.8282   17.5011   28.0907 C   0  0  0  0  0  0  0  0  0  0  0  0
  -20.2007   18.7427   28.5812 C   0  0  0  0  0  0  0  0  0  0  0  0
  -20.3799   19.7886   27.9122 O   0  0  0  0  0  0  0  0  0  0  0  0
  -19.4428   18.8077   29.7153 O   0  0  0  0  0  0  0  0  0  0  0  0
  -20.4807   15.2543   29.2615 C   0  0  0  0  0  0  0  0  0  0  0  0
  -19.5562   15.0086   28.4470 O   0  0  0  0  0  0  0  0  0  0  0  0
  -20.8435   14.2697   30.1665 O   0  0  0  0  0  0  0  0  0  0  0  0
  1  2  2  0
  2  3  1  0
  3  4  1  0
  4  5  2  0
  4  6  1  0
  2  7  1  0
  7  8  2  0
  7  9  1  0
M  END
$$$$
