
     RDKit          3D

 21 21  0  0  0  0  0  0  0  0999 V2000
   26.7755  -14.7746   65.1594 C   0  0  0  0  0  0  0  0  0  0  0  0
   28.2883  -14.5628   64.2034 S   0  0  0  0  0  0  0  0  0  0  0  0
   28.2134  -13.1930   63.0418 C   0  0  0  0  0  0  0  0  0  0  0  0
   27.7994  -13.5954   61.6780 C   0  0  0  0  0  0  0  0  0  0  0  0
   27.5164  -12.5035   60.7055 C   0  0  0  0  0  0  0  0  0  0  0  0
   27.1190  -13.1628   59.4469 N   0  0  0  0  0  0  0  0  0  0  0  0
   26.6779  -12.3944   58.5099 C   0  0  0  0  0  0  0  0  0  0  0  0
   25.6484  -12.8235   57.5750 C   0  0  0  0  0  0  0  0  0  0  0  0
   24.9554  -11.9200   56.8385 C   0  0  0  0  0  0  0  0  0  0  0  0
   25.2238  -10.4871   56.9486 C   0  0  0  0  0  0  0  0  0  0  0  0
   26.5197  -10.2339   56.5353 O   0  0  0  0  0  0  0  0  0  0  0  0
   26.9101   -8.5912   56.5410 P   0  0  0  0  0  5  0  0  0  0  0  0
   28.0297   -8.3158   55.5368 O   0  0  0  0  0  0  0  0  0  0  0  0
   27.4433   -8.2137   58.1084 O   0  0  0  0  0  0  0  0  0  0  0  0
   25.5811   -7.6523   56.1406 O   0  0  0  0  0  0  0  0  0  0  0  0
   23.9706  -12.3187   55.9503 C   0  0  0  0  0  0  0  0  0  0  0  0
   23.7023  -13.6415   55.8232 N   0  0  0  0  0  0  0  0  0  0  0  0
   24.3689  -14.5759   56.5382 C   0  0  0  0  0  0  0  0  0  0  0  0
   24.0708  -16.0237   56.4029 C   0  0  0  0  0  0  0  0  0  0  0  0
   25.3627  -14.1638   57.4325 C   0  0  0  0  0  0  0  0  0  0  0  0
   26.0191  -15.1651   58.1430 O   0  0  0  0  0  0  0  0  0  0  0  0
  1  2  1  0
  2  3  1  0
  3  4  1  0
  4  5  1  0
  5  6  1  0
  6  7  2  0
  7  8  1  0
  8  9  2  0
  9 10  1  0
 10 11  1  0
 11 12  1  0
 12 13  2  0
 12 14  1  0
 12 15  1  0
  9 16  1  0
 16 17  2  0
 17 18  1  0
 18 19  1  0
 18 20  2  0
 20 21  1  0
 20  8  1  0
M  END
$$$$
