
     RDKit          3D

 21 21  0  0  0  0  0  0  0  0999 V2000
   28.4869   17.7179   43.3878 C   0  0  0  0  0  0  0  0  0  0  0  0
   28.6441   17.3779   45.1505 S   0  0  0  0  0  0  0  0  0  0  0  0
   29.7400   16.0011   45.5175 C   0  0  0  0  0  0  0  0  0  0  0  0
   29.7951   15.6557   46.9566 C   0  0  0  0  0  0  0  0  0  0  0  0
   28.8381   14.6237   47.4434 C   0  0  0  0  0  0  0  0  0  0  0  0
   27.8856   15.3252   48.3249 N   0  0  0  0  0  0  0  0  0  0  0  0
   27.9592   15.0529   49.5832 C   0  0  0  0  0  0  0  0  0  0  0  0
   26.9802   15.5435   50.5418 C   0  0  0  0  0  0  0  0  0  0  0  0
   26.2687   14.6844   51.3130 C   0  0  0  0  0  0  0  0  0  0  0  0
   26.4665   13.2390   51.2176 C   0  0  0  0  0  0  0  0  0  0  0  0
   27.7773   12.9367   51.5405 O   0  0  0  0  0  0  0  0  0  0  0  0
   28.1107   11.2823   51.4863 P   0  0  0  0  0  5  0  0  0  0  0  0
   28.8743   10.9440   50.2056 O   0  0  0  0  0  0  0  0  0  0  0  0
   26.6168   10.4752   51.4904 O   0  0  0  0  0  0  0  0  0  0  0  0
   29.0284   10.8067   52.8052 O   0  0  0  0  0  0  0  0  0  0  0  0
   25.3315   15.1418   52.2241 C   0  0  0  0  0  0  0  0  0  0  0  0
   25.1294   16.4775   52.3382 N   0  0  0  0  0  0  0  0  0  0  0  0
   25.8166   17.3690   51.5888 C   0  0  0  0  0  0  0  0  0  0  0  0
   25.5908   18.8311   51.7101 C   0  0  0  0  0  0  0  0  0  0  0  0
   26.7620   16.8976   50.6716 C   0  0  0  0  0  0  0  0  0  0  0  0
   27.4423   17.8565   49.9259 O   0  0  0  0  0  0  0  0  0  0  0  0
  1  2  1  0
  2  3  1  0
  3  4  1  0
  4  5  1  0
  5  6  1  0
  6  7  2  0
  7  8  1  0
  8  9  2  0
  9 10  1  0
 10 11  1  0
 11 12  1  0
 12 13  2  0
 12 14  1  0
 12 15  1  0
  9 16  1  0
 16 17  2  0
 17 18  1  0
 18 19  1  0
 18 20  2  0
 20 21  1  0
 20  8  1  0
M  END
$$$$
