
     RDKit          3D

 21 21  0  0  0  0  0  0  0  0999 V2000
   29.9942   17.6868   43.9317 C   0  0  0  0  0  0  0  0  0  0  0  0
   28.9306   16.3471   44.4986 S   0  0  0  0  0  0  0  0  0  0  0  0
   29.8279   15.0165   45.3084 C   0  0  0  0  0  0  0  0  0  0  0  0
   29.7321   15.0514   46.7859 C   0  0  0  0  0  0  0  0  0  0  0  0
   28.4288   14.6591   47.3903 C   0  0  0  0  0  0  0  0  0  0  0  0
   28.2558   15.5053   48.5864 N   0  0  0  0  0  0  0  0  0  0  0  0
   27.8855   14.9054   49.6662 C   0  0  0  0  0  0  0  0  0  0  0  0
   26.9013   15.4774   50.5730 C   0  0  0  0  0  0  0  0  0  0  0  0
   26.1205   14.6822   51.3457 C   0  0  0  0  0  0  0  0  0  0  0  0
   26.2461   13.2263   51.3041 C   0  0  0  0  0  0  0  0  0  0  0  0
   27.3321   12.8411   52.0698 O   0  0  0  0  0  0  0  0  0  0  0  0
   27.7972   11.2396   51.8056 P   0  0  0  0  0  5  0  0  0  0  0  0
   28.9833   10.8843   52.7026 O   0  0  0  0  0  0  0  0  0  0  0  0
   28.2579   11.1196   50.1756 O   0  0  0  0  0  0  0  0  0  0  0  0
   26.5378   10.1828   52.1297 O   0  0  0  0  0  0  0  0  0  0  0  0
   25.1779   15.2173   52.2076 C   0  0  0  0  0  0  0  0  0  0  0  0
   25.0415   16.5647   52.2712 N   0  0  0  0  0  0  0  0  0  0  0  0
   25.7991   17.3942   51.5184 C   0  0  0  0  0  0  0  0  0  0  0  0
   25.6454   18.8691   51.5844 C   0  0  0  0  0  0  0  0  0  0  0  0
   26.7493   16.8445   50.6511 C   0  0  0  0  0  0  0  0  0  0  0  0
   27.5033   17.7417   49.8996 O   0  0  0  0  0  0  0  0  0  0  0  0
  1  2  1  0
  2  3  1  0
  3  4  1  0
  4  5  1  0
  5  6  1  0
  6  7  2  0
  7  8  1  0
  8  9  2  0
  9 10  1  0
 10 11  1  0
 11 12  1  0
 12 13  2  0
 12 14  1  0
 12 15  1  0
  9 16  1  0
 16 17  2  0
 17 18  1  0
 18 19  1  0
 18 20  2  0
 20 21  1  0
 20  8  1  0
M  END
$$$$
