
     RDKit          3D

 21 21  0  0  0  0  0  0  0  0999 V2000
   27.7415  -15.2561   64.4036 C   0  0  0  0  0  0  0  0  0  0  0  0
   26.8792  -14.1165   63.3058 S   0  0  0  0  0  0  0  0  0  0  0  0
   27.9243  -12.7906   62.6885 C   0  0  0  0  0  0  0  0  0  0  0  0
   27.7988  -12.5683   61.2297 C   0  0  0  0  0  0  0  0  0  0  0  0
   27.3137  -13.7124   60.4088 C   0  0  0  0  0  0  0  0  0  0  0  0
   27.6443  -13.3867   59.0084 N   0  0  0  0  0  0  0  0  0  0  0  0
   26.8976  -12.5082   58.4308 C   0  0  0  0  0  0  0  0  0  0  0  0
   25.8151  -12.8805   57.5321 C   0  0  0  0  0  0  0  0  0  0  0  0
   25.0951  -11.9350   56.8789 C   0  0  0  0  0  0  0  0  0  0  0  0
   25.3864  -10.5120   57.0448 C   0  0  0  0  0  0  0  0  0  0  0  0
   26.5380  -10.1986   56.3450 O   0  0  0  0  0  0  0  0  0  0  0  0
   27.0244   -8.5947   56.5496 P   0  0  0  0  0  5  0  0  0  0  0  0
   27.5685   -8.3891   57.9636 O   0  0  0  0  0  0  0  0  0  0  0  0
   25.6484   -7.6263   56.3208 O   0  0  0  0  0  0  0  0  0  0  0  0
   28.2145   -8.1781   55.4459 O   0  0  0  0  0  0  0  0  0  0  0  0
   24.0601  -12.2796   56.0259 C   0  0  0  0  0  0  0  0  0  0  0  0
   23.7695  -13.5919   55.8485 N   0  0  0  0  0  0  0  0  0  0  0  0
   24.4616  -14.5670   56.4801 C   0  0  0  0  0  0  0  0  0  0  0  0
   24.1393  -16.0034   56.2898 C   0  0  0  0  0  0  0  0  0  0  0  0
   25.5060  -14.2093   57.3394 C   0  0  0  0  0  0  0  0  0  0  0  0
   26.1868  -15.2508   57.9638 O   0  0  0  0  0  0  0  0  0  0  0  0
  1  2  1  0
  2  3  1  0
  3  4  1  0
  4  5  1  0
  5  6  1  0
  6  7  2  0
  7  8  1  0
  8  9  2  0
  9 10  1  0
 10 11  1  0
 11 12  1  0
 12 13  2  0
 12 14  1  0
 12 15  1  0
  9 16  1  0
 16 17  2  0
 17 18  1  0
 18 19  1  0
 18 20  2  0
 20 21  1  0
 20  8  1  0
M  END
$$$$
