
     RDKit          3D

 21 21  0  0  0  0  0  0  0  0999 V2000
   27.1431  -15.5997   64.5645 C   0  0  0  0  0  0  0  0  0  0  0  0
   27.3545  -13.8384   64.2473 S   0  0  0  0  0  0  0  0  0  0  0  0
   28.5208  -13.4854   62.9257 C   0  0  0  0  0  0  0  0  0  0  0  0
   28.0041  -13.8131   61.5770 C   0  0  0  0  0  0  0  0  0  0  0  0
   27.5507  -12.6753   60.7297 C   0  0  0  0  0  0  0  0  0  0  0  0
   27.0976  -13.2633   59.4548 N   0  0  0  0  0  0  0  0  0  0  0  0
   26.6205  -12.4437   58.5811 C   0  0  0  0  0  0  0  0  0  0  0  0
   25.6237  -12.8481   57.6009 C   0  0  0  0  0  0  0  0  0  0  0  0
   25.0095  -11.9316   56.8125 C   0  0  0  0  0  0  0  0  0  0  0  0
   25.3331  -10.5092   56.9106 C   0  0  0  0  0  0  0  0  0  0  0  0
   26.6261  -10.3047   56.4628 O   0  0  0  0  0  0  0  0  0  0  0  0
   27.1191   -8.6933   56.5688 P   0  0  0  0  0  5  0  0  0  0  0  0
   28.3343   -8.4577   55.6713 O   0  0  0  0  0  0  0  0  0  0  0  0
   27.5421   -8.4098   58.1887 O   0  0  0  0  0  0  0  0  0  0  0  0
   25.8913   -7.6532   56.1012 O   0  0  0  0  0  0  0  0  0  0  0  0
   24.0563  -12.3066   55.8806 C   0  0  0  0  0  0  0  0  0  0  0  0
   23.7384  -13.6193   55.7635 N   0  0  0  0  0  0  0  0  0  0  0  0
   24.3262  -14.5661   56.5295 C   0  0  0  0  0  0  0  0  0  0  0  0
   23.9737  -16.0026   56.4048 C   0  0  0  0  0  0  0  0  0  0  0  0
   25.2887  -14.1779   57.4677 C   0  0  0  0  0  0  0  0  0  0  0  0
   25.8635  -15.1911   58.2300 O   0  0  0  0  0  0  0  0  0  0  0  0
  1  2  1  0
  2  3  1  0
  3  4  1  0
  4  5  1  0
  5  6  1  0
  6  7  2  0
  7  8  1  0
  8  9  2  0
  9 10  1  0
 10 11  1  0
 11 12  1  0
 12 13  2  0
 12 14  1  0
 12 15  1  0
  9 16  1  0
 16 17  2  0
 17 18  1  0
 18 19  1  0
 18 20  2  0
 20 21  1  0
 20  8  1  0
M  END
$$$$
