
     RDKit          3D

 21 21  0  0  0  0  0  0  0  0999 V2000
   28.1611   11.5482   44.0236 C   0  0  0  0  0  0  0  0  0  0  0  0
   28.0307   12.9115   45.1949 S   0  0  0  0  0  0  0  0  0  0  0  0
   29.5323   13.1831   46.1450 C   0  0  0  0  0  0  0  0  0  0  0  0
   29.2993   13.8677   47.4374 C   0  0  0  0  0  0  0  0  0  0  0  0
   28.6082   15.1861   47.3914 C   0  0  0  0  0  0  0  0  0  0  0  0
   28.5883   15.6918   48.7772 N   0  0  0  0  0  0  0  0  0  0  0  0
   27.9493   14.9781   49.6404 C   0  0  0  0  0  0  0  0  0  0  0  0
   26.9636   15.5522   50.5442 C   0  0  0  0  0  0  0  0  0  0  0  0
   26.1477   14.7582   51.2811 C   0  0  0  0  0  0  0  0  0  0  0  0
   26.2357   13.3010   51.2027 C   0  0  0  0  0  0  0  0  0  0  0  0
   27.1598   12.8504   52.1285 O   0  0  0  0  0  0  0  0  0  0  0  0
   27.8185   11.3470   51.7326 P   0  0  0  0  0  5  0  0  0  0  0  0
   28.8498   10.9344   52.7833 O   0  0  0  0  0  0  0  0  0  0  0  0
   28.5782   11.5203   50.2240 O   0  0  0  0  0  0  0  0  0  0  0  0
   26.6297   10.1689   51.6493 O   0  0  0  0  0  0  0  0  0  0  0  0
   25.2036   15.2955   52.1399 C   0  0  0  0  0  0  0  0  0  0  0  0
   25.1016   16.6439   52.2372 N   0  0  0  0  0  0  0  0  0  0  0  0
   25.8948   17.4723   51.5208 C   0  0  0  0  0  0  0  0  0  0  0  0
   25.7788   18.9486   51.6235 C   0  0  0  0  0  0  0  0  0  0  0  0
   26.8463   16.9204   50.6563 C   0  0  0  0  0  0  0  0  0  0  0  0
   27.6376   17.8165   49.9429 O   0  0  0  0  0  0  0  0  0  0  0  0
  1  2  1  0
  2  3  1  0
  3  4  1  0
  4  5  1  0
  5  6  1  0
  6  7  2  0
  7  8  1  0
  8  9  2  0
  9 10  1  0
 10 11  1  0
 11 12  1  0
 12 13  2  0
 12 14  1  0
 12 15  1  0
  9 16  1  0
 16 17  2  0
 17 18  1  0
 18 19  1  0
 18 20  2  0
 20 21  1  0
 20  8  1  0
M  END
$$$$
