
     RDKit          3D

 21 21  0  0  0  0  0  0  0  0999 V2000
   26.9830  -14.8709   63.9223 C   0  0  0  0  0  0  0  0  0  0  0  0
   27.7857  -13.3050   63.5338 S   0  0  0  0  0  0  0  0  0  0  0  0
   29.0923  -13.4565   62.3086 C   0  0  0  0  0  0  0  0  0  0  0  0
   28.7890  -12.7702   61.0318 C   0  0  0  0  0  0  0  0  0  0  0  0
   27.4350  -12.1659   60.8918 C   0  0  0  0  0  0  0  0  0  0  0  0
   26.7254  -12.9701   59.8787 N   0  0  0  0  0  0  0  0  0  0  0  0
   26.7285  -12.5099   58.6741 C   0  0  0  0  0  0  0  0  0  0  0  0
   25.7381  -12.9133   57.6870 C   0  0  0  0  0  0  0  0  0  0  0  0
   25.0941  -11.9917   56.9288 C   0  0  0  0  0  0  0  0  0  0  0  0
   25.3782  -10.5643   57.0675 C   0  0  0  0  0  0  0  0  0  0  0  0
   26.6526  -10.3059   56.5951 O   0  0  0  0  0  0  0  0  0  0  0  0
   27.0504   -8.6652   56.6189 P   0  0  0  0  0  5  0  0  0  0  0  0
   25.9647   -7.8531   55.9121 O   0  0  0  0  0  0  0  0  0  0  0  0
   28.5209   -8.4993   55.7860 O   0  0  0  0  0  0  0  0  0  0  0  0
   27.2093   -8.1041   58.1899 O   0  0  0  0  0  0  0  0  0  0  0  0
   24.1467  -12.3659   55.9907 C   0  0  0  0  0  0  0  0  0  0  0  0
   23.8653  -13.6831   55.8363 N   0  0  0  0  0  0  0  0  0  0  0  0
   24.4835  -14.6350   56.5713 C   0  0  0  0  0  0  0  0  0  0  0  0
   24.1708  -16.0766   56.4059 C   0  0  0  0  0  0  0  0  0  0  0  0
   25.4398  -14.2475   57.5162 C   0  0  0  0  0  0  0  0  0  0  0  0
   26.0470  -15.2661   58.2455 O   0  0  0  0  0  0  0  0  0  0  0  0
  1  2  1  0
  2  3  1  0
  3  4  1  0
  4  5  1  0
  5  6  1  0
  6  7  2  0
  7  8  1  0
  8  9  2  0
  9 10  1  0
 10 11  1  0
 11 12  1  0
 12 13  2  0
 12 14  1  0
 12 15  1  0
  9 16  1  0
 16 17  2  0
 17 18  1  0
 18 19  1  0
 18 20  2  0
 20 21  1  0
 20  8  1  0
M  END
$$$$
