
     RDKit          3D

 21 21  0  0  0  0  0  0  0  0999 V2000
   27.4727  -15.3881   64.1146 C   0  0  0  0  0  0  0  0  0  0  0  0
   27.3691  -13.6161   63.8040 S   0  0  0  0  0  0  0  0  0  0  0  0
   28.7238  -12.9856   62.8047 C   0  0  0  0  0  0  0  0  0  0  0  0
   28.5470  -13.2190   61.3529 C   0  0  0  0  0  0  0  0  0  0  0  0
   27.2117  -12.9047   60.7733 C   0  0  0  0  0  0  0  0  0  0  0  0
   27.3054  -13.2034   59.3316 N   0  0  0  0  0  0  0  0  0  0  0  0
   26.7131  -12.3808   58.5344 C   0  0  0  0  0  0  0  0  0  0  0  0
   25.7020  -12.8155   57.5822 C   0  0  0  0  0  0  0  0  0  0  0  0
   25.0271  -11.9168   56.8234 C   0  0  0  0  0  0  0  0  0  0  0  0
   25.2974  -10.4837   56.9262 C   0  0  0  0  0  0  0  0  0  0  0  0
   26.3659  -10.1623   56.1081 O   0  0  0  0  0  0  0  0  0  0  0  0
   27.1544   -8.7431   56.5716 P   0  0  0  0  0  5  0  0  0  0  0  0
   28.3965   -9.0801   57.3971 O   0  0  0  0  0  0  0  0  0  0  0  0
   26.0613   -7.8558   57.5209 O   0  0  0  0  0  0  0  0  0  0  0  0
   27.6201   -7.8459   55.2351 O   0  0  0  0  0  0  0  0  0  0  0  0
   24.0598  -12.3207   55.9184 C   0  0  0  0  0  0  0  0  0  0  0  0
   23.7903  -13.6439   55.7977 N   0  0  0  0  0  0  0  0  0  0  0  0
   24.4393  -14.5736   56.5347 C   0  0  0  0  0  0  0  0  0  0  0  0
   24.1398  -16.0218   56.4062 C   0  0  0  0  0  0  0  0  0  0  0  0
   25.4154  -14.1562   57.4458 C   0  0  0  0  0  0  0  0  0  0  0  0
   26.0540  -15.1528   58.1787 O   0  0  0  0  0  0  0  0  0  0  0  0
  1  2  1  0
  2  3  1  0
  3  4  1  0
  4  5  1  0
  5  6  1  0
  6  7  2  0
  7  8  1  0
  8  9  2  0
  9 10  1  0
 10 11  1  0
 11 12  1  0
 12 13  2  0
 12 14  1  0
 12 15  1  0
  9 16  1  0
 16 17  2  0
 17 18  1  0
 18 19  1  0
 18 20  2  0
 20 21  1  0
 20  8  1  0
M  END
$$$$
