
     RDKit          3D

 21 21  0  0  0  0  0  0  0  0999 V2000
   27.6891  -11.1705   63.7390 C   0  0  0  0  0  0  0  0  0  0  0  0
   28.7476  -12.6135   63.5277 S   0  0  0  0  0  0  0  0  0  0  0  0
   27.8601  -14.0757   62.9748 C   0  0  0  0  0  0  0  0  0  0  0  0
   27.7336  -14.1698   61.5022 C   0  0  0  0  0  0  0  0  0  0  0  0
   27.5060  -12.8996   60.7586 C   0  0  0  0  0  0  0  0  0  0  0  0
   27.4441  -13.2617   59.3298 N   0  0  0  0  0  0  0  0  0  0  0  0
   26.8511  -12.4236   58.5496 C   0  0  0  0  0  0  0  0  0  0  0  0
   25.8287  -12.8372   57.6001 C   0  0  0  0  0  0  0  0  0  0  0  0
   25.1655  -11.9242   56.8481 C   0  0  0  0  0  0  0  0  0  0  0  0
   25.4602  -10.4962   56.9556 C   0  0  0  0  0  0  0  0  0  0  0  0
   26.7532  -10.2644   56.5215 O   0  0  0  0  0  0  0  0  0  0  0  0
   27.1742   -8.6293   56.5301 P   0  0  0  0  0  5  0  0  0  0  0  0
   26.0198   -7.7888   55.9835 O   0  0  0  0  0  0  0  0  0  0  0  0
   28.5303   -8.4611   55.5221 O   0  0  0  0  0  0  0  0  0  0  0  0
   27.5376   -8.1065   58.0802 O   0  0  0  0  0  0  0  0  0  0  0  0
   24.1877  -12.3080   55.9458 C   0  0  0  0  0  0  0  0  0  0  0  0
   23.8956  -13.6260   55.8206 N   0  0  0  0  0  0  0  0  0  0  0  0
   24.5322  -14.5696   56.5508 C   0  0  0  0  0  0  0  0  0  0  0  0
   24.2080  -16.0119   56.4175 C   0  0  0  0  0  0  0  0  0  0  0  0
   25.5192  -14.1724   57.4593 C   0  0  0  0  0  0  0  0  0  0  0  0
   26.1442  -15.1827   58.1852 O   0  0  0  0  0  0  0  0  0  0  0  0
  1  2  1  0
  2  3  1  0
  3  4  1  0
  4  5  1  0
  5  6  1  0
  6  7  2  0
  7  8  1  0
  8  9  2  0
  9 10  1  0
 10 11  1  0
 11 12  1  0
 12 13  2  0
 12 14  1  0
 12 15  1  0
  9 16  1  0
 16 17  2  0
 17 18  1  0
 18 19  1  0
 18 20  2  0
 20 21  1  0
 20  8  1  0
M  END
$$$$
