
     RDKit          3D

 21 21  0  0  0  0  0  0  0  0999 V2000
   26.5846  -14.7153   65.0867 C   0  0  0  0  0  0  0  0  0  0  0  0
   27.7714  -14.7933   63.7329 S   0  0  0  0  0  0  0  0  0  0  0  0
   28.0505  -13.2068   62.9352 C   0  0  0  0  0  0  0  0  0  0  0  0
   27.2428  -13.0103   61.7095 C   0  0  0  0  0  0  0  0  0  0  0  0
   27.9674  -12.5791   60.4819 C   0  0  0  0  0  0  0  0  0  0  0  0
   27.2642  -13.2036   59.3452 N   0  0  0  0  0  0  0  0  0  0  0  0
   26.6893  -12.4021   58.5145 C   0  0  0  0  0  0  0  0  0  0  0  0
   25.6617  -12.8519   57.5874 C   0  0  0  0  0  0  0  0  0  0  0  0
   24.9814  -11.9665   56.8178 C   0  0  0  0  0  0  0  0  0  0  0  0
   25.2622  -10.5333   56.8834 C   0  0  0  0  0  0  0  0  0  0  0  0
   26.4182  -10.2630   56.1729 O   0  0  0  0  0  0  0  0  0  0  0  0
   26.9803   -8.6862   56.3930 P   0  0  0  0  0  5  0  0  0  0  0  0
   27.1618   -8.3984   57.8836 O   0  0  0  0  0  0  0  0  0  0  0  0
   25.8026   -7.6457   55.7498 O   0  0  0  0  0  0  0  0  0  0  0  0
   28.4457   -8.4523   55.6144 O   0  0  0  0  0  0  0  0  0  0  0  0
   23.9985  -12.3848   55.9365 C   0  0  0  0  0  0  0  0  0  0  0  0
   23.7190  -13.7086   55.8504 N   0  0  0  0  0  0  0  0  0  0  0  0
   24.3728  -14.6254   56.5993 C   0  0  0  0  0  0  0  0  0  0  0  0
   24.0623  -16.0741   56.5087 C   0  0  0  0  0  0  0  0  0  0  0  0
   25.3647  -14.1935   57.4862 C   0  0  0  0  0  0  0  0  0  0  0  0
   26.0077  -15.1772   58.2327 O   0  0  0  0  0  0  0  0  0  0  0  0
  1  2  1  0
  2  3  1  0
  3  4  1  0
  4  5  1  0
  5  6  1  0
  6  7  2  0
  7  8  1  0
  8  9  2  0
  9 10  1  0
 10 11  1  0
 11 12  1  0
 12 13  2  0
 12 14  1  0
 12 15  1  0
  9 16  1  0
 16 17  2  0
 17 18  1  0
 18 19  1  0
 18 20  2  0
 20 21  1  0
 20  8  1  0
M  END
$$$$
