
     RDKit          3D

 21 21  0  0  0  0  0  0  0  0999 V2000
   26.7457  -14.9315   65.3725 C   0  0  0  0  0  0  0  0  0  0  0  0
   27.1177  -15.0067   63.6108 S   0  0  0  0  0  0  0  0  0  0  0  0
   28.0138  -13.5698   63.0079 C   0  0  0  0  0  0  0  0  0  0  0  0
   28.2248  -13.5759   61.5420 C   0  0  0  0  0  0  0  0  0  0  0  0
   27.5311  -12.5204   60.7528 C   0  0  0  0  0  0  0  0  0  0  0  0
   26.9696  -13.1928   59.5658 N   0  0  0  0  0  0  0  0  0  0  0  0
   26.6345  -12.4328   58.5793 C   0  0  0  0  0  0  0  0  0  0  0  0
   25.6422  -12.8339   57.5933 C   0  0  0  0  0  0  0  0  0  0  0  0
   25.0119  -11.9120   56.8239 C   0  0  0  0  0  0  0  0  0  0  0  0
   25.3132  -10.4869   56.9492 C   0  0  0  0  0  0  0  0  0  0  0  0
   26.5895  -10.2480   56.4717 O   0  0  0  0  0  0  0  0  0  0  0  0
   27.0384   -8.6226   56.5589 P   0  0  0  0  0  5  0  0  0  0  0  0
   28.2935   -8.3805   55.7200 O   0  0  0  0  0  0  0  0  0  0  0  0
   27.3683   -8.2861   58.1903 O   0  0  0  0  0  0  0  0  0  0  0  0
   25.8130   -7.6259   55.9994 O   0  0  0  0  0  0  0  0  0  0  0  0
   24.0627  -12.2838   55.8867 C   0  0  0  0  0  0  0  0  0  0  0  0
   23.7654  -13.5989   55.7446 N   0  0  0  0  0  0  0  0  0  0  0  0
   24.3696  -14.5510   56.4910 C   0  0  0  0  0  0  0  0  0  0  0  0
   24.0395  -15.9902   56.3390 C   0  0  0  0  0  0  0  0  0  0  0  0
   25.3278  -14.1659   57.4348 C   0  0  0  0  0  0  0  0  0  0  0  0
   25.9202  -15.1846   58.1762 O   0  0  0  0  0  0  0  0  0  0  0  0
  1  2  1  0
  2  3  1  0
  3  4  1  0
  4  5  1  0
  5  6  1  0
  6  7  2  0
  7  8  1  0
  8  9  2  0
  9 10  1  0
 10 11  1  0
 11 12  1  0
 12 13  2  0
 12 14  1  0
 12 15  1  0
  9 16  1  0
 16 17  2  0
 17 18  1  0
 18 19  1  0
 18 20  2  0
 20 21  1  0
 20  8  1  0
M  END
$$$$
