
     RDKit          3D

 21 21  0  0  0  0  0  0  0  0999 V2000
   28.5000   17.9846   43.4732 C   0  0  0  0  0  0  0  0  0  0  0  0
   28.5429   17.3431   45.1566 S   0  0  0  0  0  0  0  0  0  0  0  0
   29.2005   15.6739   45.2685 C   0  0  0  0  0  0  0  0  0  0  0  0
   28.6568   14.8985   46.4071 C   0  0  0  0  0  0  0  0  0  0  0  0
   29.3743   15.0097   47.7074 C   0  0  0  0  0  0  0  0  0  0  0  0
   28.4498   15.6909   48.6335 N   0  0  0  0  0  0  0  0  0  0  0  0
   27.9128   14.9604   49.5505 C   0  0  0  0  0  0  0  0  0  0  0  0
   26.9562   15.4957   50.5078 C   0  0  0  0  0  0  0  0  0  0  0  0
   26.2372   14.6717   51.3097 C   0  0  0  0  0  0  0  0  0  0  0  0
   26.4041   13.2206   51.2496 C   0  0  0  0  0  0  0  0  0  0  0  0
   27.6814   12.8917   51.6672 O   0  0  0  0  0  0  0  0  0  0  0  0
   27.9877   11.2318   51.6250 P   0  0  0  0  0  5  0  0  0  0  0  0
   26.7870   10.4637   52.1782 O   0  0  0  0  0  0  0  0  0  0  0  0
   29.3452   10.9530   52.6063 O   0  0  0  0  0  0  0  0  0  0  0  0
   28.2886   10.7119   50.0607 O   0  0  0  0  0  0  0  0  0  0  0  0
   25.3212   15.1718   52.2200 C   0  0  0  0  0  0  0  0  0  0  0  0
   25.1478   16.5139   52.3018 N   0  0  0  0  0  0  0  0  0  0  0  0
   25.8436   17.3714   51.5211 C   0  0  0  0  0  0  0  0  0  0  0  0
   25.6493   18.8405   51.6071 C   0  0  0  0  0  0  0  0  0  0  0  0
   26.7674   16.8570   50.6050 C   0  0  0  0  0  0  0  0  0  0  0  0
   27.4576   17.7821   49.8265 O   0  0  0  0  0  0  0  0  0  0  0  0
  1  2  1  0
  2  3  1  0
  3  4  1  0
  4  5  1  0
  5  6  1  0
  6  7  2  0
  7  8  1  0
  8  9  2  0
  9 10  1  0
 10 11  1  0
 11 12  1  0
 12 13  2  0
 12 14  1  0
 12 15  1  0
  9 16  1  0
 16 17  2  0
 17 18  1  0
 18 19  1  0
 18 20  2  0
 20 21  1  0
 20  8  1  0
M  END
$$$$
