
     RDKit          3D

 21 21  0  0  0  0  0  0  0  0999 V2000
   27.3385  -14.7458   65.2792 C   0  0  0  0  0  0  0  0  0  0  0  0
   27.3023  -14.5449   63.4887 S   0  0  0  0  0  0  0  0  0  0  0  0
   28.4229  -13.2735   62.8896 C   0  0  0  0  0  0  0  0  0  0  0  0
   28.4115  -13.1207   61.4165 C   0  0  0  0  0  0  0  0  0  0  0  0
   27.2330  -12.4371   60.8149 C   0  0  0  0  0  0  0  0  0  0  0  0
   26.9394  -13.1489   59.5565 N   0  0  0  0  0  0  0  0  0  0  0  0
   26.6214  -12.4176   58.5431 C   0  0  0  0  0  0  0  0  0  0  0  0
   25.6459  -12.8469   57.5521 C   0  0  0  0  0  0  0  0  0  0  0  0
   25.0501  -11.9509   56.7268 C   0  0  0  0  0  0  0  0  0  0  0  0
   25.3731  -10.5266   56.7950 C   0  0  0  0  0  0  0  0  0  0  0  0
   26.7331  -10.3588   56.6043 O   0  0  0  0  0  0  0  0  0  0  0  0
   27.2141   -8.7406   56.6365 P   0  0  0  0  0  5  0  0  0  0  0  0
   25.9881   -7.8320   56.7334 O   0  0  0  0  0  0  0  0  0  0  0  0
   28.0352   -8.4384   55.1812 O   0  0  0  0  0  0  0  0  0  0  0  0
   28.2192   -8.4342   57.9418 O   0  0  0  0  0  0  0  0  0  0  0  0
   24.1171  -12.3495   55.7843 C   0  0  0  0  0  0  0  0  0  0  0  0
   23.8005  -13.6646   55.6945 N   0  0  0  0  0  0  0  0  0  0  0  0
   24.3702  -14.5915   56.4977 C   0  0  0  0  0  0  0  0  0  0  0  0
   24.0189  -16.0305   56.4027 C   0  0  0  0  0  0  0  0  0  0  0  0
   25.3123  -14.1795   57.4463 C   0  0  0  0  0  0  0  0  0  0  0  0
   25.8692  -15.1728   58.2472 O   0  0  0  0  0  0  0  0  0  0  0  0
  1  2  1  0
  2  3  1  0
  3  4  1  0
  4  5  1  0
  5  6  1  0
  6  7  2  0
  7  8  1  0
  8  9  2  0
  9 10  1  0
 10 11  1  0
 11 12  1  0
 12 13  2  0
 12 14  1  0
 12 15  1  0
  9 16  1  0
 16 17  2  0
 17 18  1  0
 18 19  1  0
 18 20  2  0
 20 21  1  0
 20  8  1  0
M  END
$$$$
