
     RDKit          3D

 21 21  0  0  0  0  0  0  0  0999 V2000
   29.9198   16.7602   42.8577 C   0  0  0  0  0  0  0  0  0  0  0  0
   29.5016   16.6737   44.6085 S   0  0  0  0  0  0  0  0  0  0  0  0
   29.2350   14.9964   45.1973 C   0  0  0  0  0  0  0  0  0  0  0  0
   28.4431   14.9266   46.4469 C   0  0  0  0  0  0  0  0  0  0  0  0
   29.1942   15.0023   47.7307 C   0  0  0  0  0  0  0  0  0  0  0  0
   28.3262   15.7299   48.6759 N   0  0  0  0  0  0  0  0  0  0  0  0
   27.9584   15.0861   49.7310 C   0  0  0  0  0  0  0  0  0  0  0  0
   26.9297   15.5905   50.6284 C   0  0  0  0  0  0  0  0  0  0  0  0
   26.1601   14.7415   51.3537 C   0  0  0  0  0  0  0  0  0  0  0  0
   26.3425   13.2935   51.2689 C   0  0  0  0  0  0  0  0  0  0  0  0
   27.6668   12.9858   51.5252 O   0  0  0  0  0  0  0  0  0  0  0  0
   27.9924   11.3310   51.4440 P   0  0  0  0  0  5  0  0  0  0  0  0
   28.5921   10.9818   50.0816 O   0  0  0  0  0  0  0  0  0  0  0  0
   26.5112   10.5240   51.6397 O   0  0  0  0  0  0  0  0  0  0  0  0
   29.0667   10.8665   52.6432 O   0  0  0  0  0  0  0  0  0  0  0  0
   25.1756   15.2122   52.2063 C   0  0  0  0  0  0  0  0  0  0  0  0
   24.9861   16.5506   52.3094 N   0  0  0  0  0  0  0  0  0  0  0  0
   25.7307   17.4324   51.6045 C   0  0  0  0  0  0  0  0  0  0  0  0
   25.5190   18.8975   51.7135 C   0  0  0  0  0  0  0  0  0  0  0  0
   26.7235   16.9476   50.7462 C   0  0  0  0  0  0  0  0  0  0  0  0
   27.4619   17.8968   50.0447 O   0  0  0  0  0  0  0  0  0  0  0  0
  1  2  1  0
  2  3  1  0
  3  4  1  0
  4  5  1  0
  5  6  1  0
  6  7  2  0
  7  8  1  0
  8  9  2  0
  9 10  1  0
 10 11  1  0
 11 12  1  0
 12 13  2  0
 12 14  1  0
 12 15  1  0
  9 16  1  0
 16 17  2  0
 17 18  1  0
 18 19  1  0
 18 20  2  0
 20 21  1  0
 20  8  1  0
M  END
$$$$
