
     RDKit          3D

 21 21  0  0  0  0  0  0  0  0999 V2000
   28.3207   17.7713   43.8803 C   0  0  0  0  0  0  0  0  0  0  0  0
   29.3965   17.0226   45.1171 S   0  0  0  0  0  0  0  0  0  0  0  0
   29.3484   15.2257   45.1121 C   0  0  0  0  0  0  0  0  0  0  0  0
   28.8646   14.6429   46.3847 C   0  0  0  0  0  0  0  0  0  0  0  0
   29.3659   15.2570   47.6455 C   0  0  0  0  0  0  0  0  0  0  0  0
   28.1721   15.6540   48.4159 N   0  0  0  0  0  0  0  0  0  0  0  0
   28.0427   15.1292   49.5867 C   0  0  0  0  0  0  0  0  0  0  0  0
   27.0489   15.5974   50.5412 C   0  0  0  0  0  0  0  0  0  0  0  0
   26.3403   14.7214   51.2958 C   0  0  0  0  0  0  0  0  0  0  0  0
   26.5558   13.2796   51.1860 C   0  0  0  0  0  0  0  0  0  0  0  0
   27.8613   12.9865   51.5379 O   0  0  0  0  0  0  0  0  0  0  0  0
   28.2137   11.3366   51.4694 P   0  0  0  0  0  5  0  0  0  0  0  0
   29.1797   11.0552   50.3181 O   0  0  0  0  0  0  0  0  0  0  0  0
   26.7465   10.5272   51.1945 O   0  0  0  0  0  0  0  0  0  0  0  0
   28.9074   10.8064   52.8996 O   0  0  0  0  0  0  0  0  0  0  0  0
   25.3892   15.1575   52.2030 C   0  0  0  0  0  0  0  0  0  0  0  0
   25.1704   16.4894   52.3302 N   0  0  0  0  0  0  0  0  0  0  0  0
   25.8542   17.3973   51.5976 C   0  0  0  0  0  0  0  0  0  0  0  0
   25.6102   18.8552   51.7332 C   0  0  0  0  0  0  0  0  0  0  0  0
   26.8137   16.9474   50.6842 C   0  0  0  0  0  0  0  0  0  0  0  0
   27.4897   17.9225   49.9560 O   0  0  0  0  0  0  0  0  0  0  0  0
  1  2  1  0
  2  3  1  0
  3  4  1  0
  4  5  1  0
  5  6  1  0
  6  7  2  0
  7  8  1  0
  8  9  2  0
  9 10  1  0
 10 11  1  0
 11 12  1  0
 12 13  2  0
 12 14  1  0
 12 15  1  0
  9 16  1  0
 16 17  2  0
 17 18  1  0
 18 19  1  0
 18 20  2  0
 20 21  1  0
 20  8  1  0
M  END
$$$$
