
     RDKit          3D

 21 21  0  0  0  0  0  0  0  0999 V2000
   27.6350  -15.1572   65.0795 C   0  0  0  0  0  0  0  0  0  0  0  0
   27.2344  -14.2806   63.5568 S   0  0  0  0  0  0  0  0  0  0  0  0
   28.6508  -13.4658   62.8078 C   0  0  0  0  0  0  0  0  0  0  0  0
   28.5534  -13.3443   61.3350 C   0  0  0  0  0  0  0  0  0  0  0  0
   27.2136  -13.0255   60.7681 C   0  0  0  0  0  0  0  0  0  0  0  0
   27.3432  -13.1503   59.3039 N   0  0  0  0  0  0  0  0  0  0  0  0
   26.6515  -12.3260   58.5932 C   0  0  0  0  0  0  0  0  0  0  0  0
   25.6565  -12.7764   57.6314 C   0  0  0  0  0  0  0  0  0  0  0  0
   24.9751  -11.8883   56.8659 C   0  0  0  0  0  0  0  0  0  0  0  0
   25.2222  -10.4512   56.9708 C   0  0  0  0  0  0  0  0  0  0  0  0
   26.4679  -10.1638   56.4418 O   0  0  0  0  0  0  0  0  0  0  0  0
   26.8574   -8.5224   56.5123 P   0  0  0  0  0  5  0  0  0  0  0  0
   25.8600   -7.7118   55.6841 O   0  0  0  0  0  0  0  0  0  0  0  0
   28.4145   -8.3537   55.8563 O   0  0  0  0  0  0  0  0  0  0  0  0
   26.8314   -7.9619   58.0913 O   0  0  0  0  0  0  0  0  0  0  0  0
   24.0231  -12.3073   55.9517 C   0  0  0  0  0  0  0  0  0  0  0  0
   23.7753  -13.6345   55.8287 N   0  0  0  0  0  0  0  0  0  0  0  0
   24.4314  -14.5540   56.5722 C   0  0  0  0  0  0  0  0  0  0  0  0
   24.1556  -16.0066   56.4412 C   0  0  0  0  0  0  0  0  0  0  0  0
   25.3921  -14.1213   57.4926 C   0  0  0  0  0  0  0  0  0  0  0  0
   26.0389  -15.1079   58.2320 O   0  0  0  0  0  0  0  0  0  0  0  0
  1  2  1  0
  2  3  1  0
  3  4  1  0
  4  5  1  0
  5  6  1  0
  6  7  2  0
  7  8  1  0
  8  9  2  0
  9 10  1  0
 10 11  1  0
 11 12  1  0
 12 13  2  0
 12 14  1  0
 12 15  1  0
  9 16  1  0
 16 17  2  0
 17 18  1  0
 18 19  1  0
 18 20  2  0
 20 21  1  0
 20  8  1  0
M  END
$$$$
