
     RDKit          3D

 21 21  0  0  0  0  0  0  0  0999 V2000
   26.1525  -14.8134   64.9124 C   0  0  0  0  0  0  0  0  0  0  0  0
   27.7849  -14.8199   64.1491 S   0  0  0  0  0  0  0  0  0  0  0  0
   28.0485  -13.4507   63.0146 C   0  0  0  0  0  0  0  0  0  0  0  0
   27.7082  -13.7722   61.6096 C   0  0  0  0  0  0  0  0  0  0  0  0
   27.4385  -12.6258   60.6979 C   0  0  0  0  0  0  0  0  0  0  0  0
   27.1678  -13.2080   59.3697 N   0  0  0  0  0  0  0  0  0  0  0  0
   26.6887  -12.4086   58.4785 C   0  0  0  0  0  0  0  0  0  0  0  0
   25.6618  -12.8245   57.5349 C   0  0  0  0  0  0  0  0  0  0  0  0
   25.0193  -11.9167   56.7589 C   0  0  0  0  0  0  0  0  0  0  0  0
   25.3415  -10.4927   56.8339 C   0  0  0  0  0  0  0  0  0  0  0  0
   26.6673  -10.3071   56.4846 O   0  0  0  0  0  0  0  0  0  0  0  0
   27.1418   -8.6869   56.5140 P   0  0  0  0  0  5  0  0  0  0  0  0
   28.0710   -8.3922   55.3361 O   0  0  0  0  0  0  0  0  0  0  0  0
   27.9741   -8.4404   57.9734 O   0  0  0  0  0  0  0  0  0  0  0  0
   25.8155   -7.6666   56.4255 O   0  0  0  0  0  0  0  0  0  0  0  0
   24.0374  -12.3027   55.8619 C   0  0  0  0  0  0  0  0  0  0  0  0
   23.7200  -13.6173   55.7667 N   0  0  0  0  0  0  0  0  0  0  0  0
   24.3354  -14.5556   56.5215 C   0  0  0  0  0  0  0  0  0  0  0  0
   23.9835  -15.9941   56.4210 C   0  0  0  0  0  0  0  0  0  0  0  0
   25.3266  -14.1563   57.4244 C   0  0  0  0  0  0  0  0  0  0  0  0
   25.9292  -15.1612   58.1764 O   0  0  0  0  0  0  0  0  0  0  0  0
  1  2  1  0
  2  3  1  0
  3  4  1  0
  4  5  1  0
  5  6  1  0
  6  7  2  0
  7  8  1  0
  8  9  2  0
  9 10  1  0
 10 11  1  0
 11 12  1  0
 12 13  2  0
 12 14  1  0
 12 15  1  0
  9 16  1  0
 16 17  2  0
 17 18  1  0
 18 19  1  0
 18 20  2  0
 20 21  1  0
 20  8  1  0
M  END
$$$$
