
     RDKit          3D

 21 21  0  0  0  0  0  0  0  0999 V2000
   27.3179  -14.5421   65.6235 C   0  0  0  0  0  0  0  0  0  0  0  0
   27.0327  -14.3821   63.8514 S   0  0  0  0  0  0  0  0  0  0  0  0
   28.2376  -13.3345   63.0256 C   0  0  0  0  0  0  0  0  0  0  0  0
   28.2620  -13.5061   61.5548 C   0  0  0  0  0  0  0  0  0  0  0  0
   27.5166  -12.5046   60.7428 C   0  0  0  0  0  0  0  0  0  0  0  0
   27.1425  -13.1845   59.4881 N   0  0  0  0  0  0  0  0  0  0  0  0
   26.7317  -12.4305   58.5261 C   0  0  0  0  0  0  0  0  0  0  0  0
   25.6992  -12.8566   57.5931 C   0  0  0  0  0  0  0  0  0  0  0  0
   25.0265  -11.9533   56.8379 C   0  0  0  0  0  0  0  0  0  0  0  0
   25.3205  -10.5239   56.9252 C   0  0  0  0  0  0  0  0  0  0  0  0
   26.5934  -10.2904   56.4360 O   0  0  0  0  0  0  0  0  0  0  0  0
   27.0222   -8.6573   56.4515 P   0  0  0  0  0  5  0  0  0  0  0  0
   28.1202   -8.3947   55.4203 O   0  0  0  0  0  0  0  0  0  0  0  0
   27.6066   -8.3129   58.0081 O   0  0  0  0  0  0  0  0  0  0  0  0
   25.7052   -7.6828   56.0996 O   0  0  0  0  0  0  0  0  0  0  0  0
   24.0391  -12.3490   55.9512 C   0  0  0  0  0  0  0  0  0  0  0  0
   23.7473  -13.6687   55.8451 N   0  0  0  0  0  0  0  0  0  0  0  0
   24.3933  -14.6028   56.5792 C   0  0  0  0  0  0  0  0  0  0  0  0
   24.0695  -16.0470   56.4667 C   0  0  0  0  0  0  0  0  0  0  0  0
   25.3899  -14.1937   57.4717 C   0  0  0  0  0  0  0  0  0  0  0  0
   26.0244  -15.1945   58.2024 O   0  0  0  0  0  0  0  0  0  0  0  0
  1  2  1  0
  2  3  1  0
  3  4  1  0
  4  5  1  0
  5  6  1  0
  6  7  2  0
  7  8  1  0
  8  9  2  0
  9 10  1  0
 10 11  1  0
 11 12  1  0
 12 13  2  0
 12 14  1  0
 12 15  1  0
  9 16  1  0
 16 17  2  0
 17 18  1  0
 18 19  1  0
 18 20  2  0
 20 21  1  0
 20  8  1  0
M  END
$$$$
