
     RDKit          3D

 21 21  0  0  0  0  0  0  0  0999 V2000
   27.0458  -15.1051   64.5526 C   0  0  0  0  0  0  0  0  0  0  0  0
   28.4789  -14.1014   64.1208 S   0  0  0  0  0  0  0  0  0  0  0  0
   28.0822  -12.7126   63.0507 C   0  0  0  0  0  0  0  0  0  0  0  0
   27.4291  -13.1102   61.7824 C   0  0  0  0  0  0  0  0  0  0  0  0
   28.0548  -12.6317   60.5185 C   0  0  0  0  0  0  0  0  0  0  0  0
   27.2912  -13.2507   59.4183 N   0  0  0  0  0  0  0  0  0  0  0  0
   26.7489  -12.4446   58.5703 C   0  0  0  0  0  0  0  0  0  0  0  0
   25.7132  -12.8756   57.6433 C   0  0  0  0  0  0  0  0  0  0  0  0
   25.0187  -11.9740   56.9059 C   0  0  0  0  0  0  0  0  0  0  0  0
   25.2918  -10.5413   57.0070 C   0  0  0  0  0  0  0  0  0  0  0  0
   26.5725  -10.2887   56.5487 O   0  0  0  0  0  0  0  0  0  0  0  0
   26.9525   -8.6440   56.5105 P   0  0  0  0  0  5  0  0  0  0  0  0
   25.8402   -7.8661   55.8065 O   0  0  0  0  0  0  0  0  0  0  0  0
   28.3993   -8.4895   55.6353 O   0  0  0  0  0  0  0  0  0  0  0  0
   27.1449   -8.0316   58.0584 O   0  0  0  0  0  0  0  0  0  0  0  0
   24.0280  -12.3744   56.0250 C   0  0  0  0  0  0  0  0  0  0  0  0
   23.7553  -13.6971   55.9063 N   0  0  0  0  0  0  0  0  0  0  0  0
   24.4232  -14.6297   56.6224 C   0  0  0  0  0  0  0  0  0  0  0  0
   24.1203  -16.0773   56.4962 C   0  0  0  0  0  0  0  0  0  0  0  0
   25.4230  -14.2158   57.5093 C   0  0  0  0  0  0  0  0  0  0  0  0
   26.0804  -15.2152   58.2213 O   0  0  0  0  0  0  0  0  0  0  0  0
  1  2  1  0
  2  3  1  0
  3  4  1  0
  4  5  1  0
  5  6  1  0
  6  7  2  0
  7  8  1  0
  8  9  2  0
  9 10  1  0
 10 11  1  0
 11 12  1  0
 12 13  2  0
 12 14  1  0
 12 15  1  0
  9 16  1  0
 16 17  2  0
 17 18  1  0
 18 19  1  0
 18 20  2  0
 20 21  1  0
 20  8  1  0
M  END
$$$$
