
     RDKit          3D

 21 21  0  0  0  0  0  0  0  0999 V2000
   27.0990  -15.0487   64.7226 C   0  0  0  0  0  0  0  0  0  0  0  0
   27.1851  -13.4044   63.9903 S   0  0  0  0  0  0  0  0  0  0  0  0
   28.5922  -13.1835   62.8937 C   0  0  0  0  0  0  0  0  0  0  0  0
   28.2955  -13.5027   61.4783 C   0  0  0  0  0  0  0  0  0  0  0  0
   27.3599  -12.5935   60.7599 C   0  0  0  0  0  0  0  0  0  0  0  0
   27.2172  -13.1392   59.3967 N   0  0  0  0  0  0  0  0  0  0  0  0
   26.6982  -12.3545   58.5148 C   0  0  0  0  0  0  0  0  0  0  0  0
   25.7043  -12.8143   57.5562 C   0  0  0  0  0  0  0  0  0  0  0  0
   25.0737  -11.9407   56.7328 C   0  0  0  0  0  0  0  0  0  0  0  0
   25.3762  -10.5108   56.7704 C   0  0  0  0  0  0  0  0  0  0  0  0
   26.7124  -10.3202   56.4664 O   0  0  0  0  0  0  0  0  0  0  0  0
   27.1633   -8.6932   56.4438 P   0  0  0  0  0  5  0  0  0  0  0  0
   28.1590   -8.4417   55.3110 O   0  0  0  0  0  0  0  0  0  0  0  0
   27.9015   -8.3625   57.9368 O   0  0  0  0  0  0  0  0  0  0  0  0
   25.8319   -7.6996   56.2245 O   0  0  0  0  0  0  0  0  0  0  0  0
   24.1232  -12.3683   55.8211 C   0  0  0  0  0  0  0  0  0  0  0  0
   23.8248  -13.6894   55.7600 N   0  0  0  0  0  0  0  0  0  0  0  0
   24.4293  -14.5946   56.5625 C   0  0  0  0  0  0  0  0  0  0  0  0
   24.0980  -16.0401   56.4990 C   0  0  0  0  0  0  0  0  0  0  0  0
   25.3889  -14.1533   57.4799 C   0  0  0  0  0  0  0  0  0  0  0  0
   25.9815  -15.1252   58.2813 O   0  0  0  0  0  0  0  0  0  0  0  0
  1  2  1  0
  2  3  1  0
  3  4  1  0
  4  5  1  0
  5  6  1  0
  6  7  2  0
  7  8  1  0
  8  9  2  0
  9 10  1  0
 10 11  1  0
 11 12  1  0
 12 13  2  0
 12 14  1  0
 12 15  1  0
  9 16  1  0
 16 17  2  0
 17 18  1  0
 18 19  1  0
 18 20  2  0
 20 21  1  0
 20  8  1  0
M  END
$$$$
