
     RDKit          3D

 21 21  0  0  0  0  0  0  0  0999 V2000
   26.8352  -19.3579   57.0125 C   0  0  0  0  0  0  0  0  0  0  0  0
   26.7420  -17.5960   57.3792 S   0  0  0  0  0  0  0  0  0  0  0  0
   28.3089  -16.8928   57.9098 C   0  0  0  0  0  0  0  0  0  0  0  0
   28.1618  -15.7859   58.8826 C   0  0  0  0  0  0  0  0  0  0  0  0
   27.8937  -14.4290   58.3304 C   0  0  0  0  0  0  0  0  0  0  0  0
   27.7948  -13.5222   59.4899 N   0  0  0  0  0  0  0  0  0  0  0  0
   27.7131  -12.2620   59.2288 C   0  0  0  0  0  0  0  0  0  0  0  0
   27.6530  -11.2548   60.2775 C   0  0  0  0  0  0  0  0  0  0  0  0
   27.6898   -9.9329   59.9772 C   0  0  0  0  0  0  0  0  0  0  0  0
   27.7801   -9.4727   58.5925 C   0  0  0  0  0  0  0  0  0  0  0  0
   26.6267   -9.8313   57.9177 O   0  0  0  0  0  0  0  0  0  0  0  0
   26.5510   -9.2050   56.3515 P   0  0  0  0  0  5  0  0  0  0  0  0
   26.1448   -7.7317   56.3960 O   0  0  0  0  0  0  0  0  0  0  0  0
   25.3718  -10.0975   55.5171 O   0  0  0  0  0  0  0  0  0  0  0  0
   28.0308   -9.3352   55.5759 O   0  0  0  0  0  0  0  0  0  0  0  0
   27.6383   -8.9675   60.9687 C   0  0  0  0  0  0  0  0  0  0  0  0
   27.5498   -9.3638   62.2622 N   0  0  0  0  0  0  0  0  0  0  0  0
   27.5106  -10.6711   62.6060 C   0  0  0  0  0  0  0  0  0  0  0  0
   27.4195  -11.1045   64.0228 C   0  0  0  0  0  0  0  0  0  0  0  0
   27.5625  -11.6393   61.5974 C   0  0  0  0  0  0  0  0  0  0  0  0
   27.5180  -12.9698   62.0048 O   0  0  0  0  0  0  0  0  0  0  0  0
  1  2  1  0
  2  3  1  0
  3  4  1  0
  4  5  1  0
  5  6  1  0
  6  7  2  0
  7  8  1  0
  8  9  2  0
  9 10  1  0
 10 11  1  0
 11 12  1  0
 12 13  2  0
 12 14  1  0
 12 15  1  0
  9 16  1  0
 16 17  2  0
 17 18  1  0
 18 19  1  0
 18 20  2  0
 20 21  1  0
 20  8  1  0
M  END
$$$$
