
     RDKit          3D

  9  9  0  0  0  0  0  0  0  0999 V2000
    8.3926    6.8639   65.2352 C   0  0  0  0  0  0  0  0  0  0  0  0
    8.4751    7.9206   64.1738 C   0  0  0  0  0  0  0  0  0  0  0  0
    7.4649    8.8443   64.0073 C   0  0  0  0  0  0  0  0  0  0  0  0
    7.4905    9.8353   63.0484 C   0  0  0  0  0  0  0  0  0  0  0  0
    6.3826   10.8166   62.8958 C   0  0  0  0  0  0  0  0  0  0  0  0
    8.5874    9.9125   62.2034 C   0  0  0  0  0  0  0  0  0  0  0  0
    8.6912   10.9020   61.1909 N   0  0  0  0  0  0  0  0  0  0  0  0
    9.5866    8.9711   62.3945 C   0  0  0  0  0  0  0  0  0  0  0  0
    9.5274    8.0193   63.3400 N   0  0  0  0  0  0  0  0  0  0  0  0
  1  2  1  0
  2  3  2  0
  3  4  1  0
  4  5  1  0
  4  6  2  0
  6  7  1  0
  6  8  1  0
  8  9  2  0
  9  2  1  0
M  END
$$$$
