
     RDKit          3D

  9  9  0  0  0  0  0  0  0  0999 V2000
    8.5795    6.8491   65.4478 C   0  0  0  0  0  0  0  0  0  0  0  0
    8.5491    7.8588   64.3389 C   0  0  0  0  0  0  0  0  0  0  0  0
    7.5224    8.7734   64.2354 C   0  0  0  0  0  0  0  0  0  0  0  0
    7.4461    9.7217   63.2368 C   0  0  0  0  0  0  0  0  0  0  0  0
    6.3233   10.6945   63.1546 C   0  0  0  0  0  0  0  0  0  0  0  0
    8.4519    9.7632   62.2831 C   0  0  0  0  0  0  0  0  0  0  0  0
    8.4480   10.7078   61.2235 N   0  0  0  0  0  0  0  0  0  0  0  0
    9.4703    8.8319   62.4130 C   0  0  0  0  0  0  0  0  0  0  0  0
    9.5116    7.9220   63.3997 N   0  0  0  0  0  0  0  0  0  0  0  0
  1  2  1  0
  2  3  2  0
  3  4  1  0
  4  5  1  0
  4  6  2  0
  6  7  1  0
  6  8  1  0
  8  9  2  0
  9  2  1  0
M  END
$$$$
