
     RDKit          3D

  9  9  0  0  0  0  0  0  0  0999 V2000
   21.5477   19.8133   50.4685 C   0  0  0  0  0  0  0  0  0  0  0  0
   22.4983   18.6962   50.7819 C   0  0  0  0  0  0  0  0  0  0  0  0
   23.8493   18.9298   50.9294 C   0  0  0  0  0  0  0  0  0  0  0  0
   24.7656   17.9399   51.2173 C   0  0  0  0  0  0  0  0  0  0  0  0
   26.2175   18.2268   51.3698 C   0  0  0  0  0  0  0  0  0  0  0  0
   24.3109   16.6385   51.3677 C   0  0  0  0  0  0  0  0  0  0  0  0
   25.1882   15.5627   51.6644 N   0  0  0  0  0  0  0  0  0  0  0  0
   22.9486   16.4344   51.2139 C   0  0  0  0  0  0  0  0  0  0  0  0
   22.0851   17.4239   50.9333 N   0  0  0  0  0  0  0  0  0  0  0  0
  1  2  1  0
  2  3  2  0
  3  4  1  0
  4  5  1  0
  4  6  2  0
  6  7  1  0
  6  8  1  0
  8  9  2  0
  9  2  1  0
M  END
$$$$
