
     RDKit          3D

  9  9  0  0  0  0  0  0  0  0999 V2000
    6.3323   10.7253   62.9468 C   0  0  0  0  0  0  0  0  0  0  0  0
    7.4842    9.7666   63.0083 C   0  0  0  0  0  0  0  0  0  0  0  0
    7.5737    8.8229   64.0098 C   0  0  0  0  0  0  0  0  0  0  0  0
    8.6102    7.9188   64.1128 C   0  0  0  0  0  0  0  0  0  0  0  0
    8.6759    6.9129   65.2070 C   0  0  0  0  0  0  0  0  0  0  0  0
    9.6191    7.9552   63.1621 C   0  0  0  0  0  0  0  0  0  0  0  0
   10.7203    7.0601   63.1964 N   0  0  0  0  0  0  0  0  0  0  0  0
    9.5021    8.9140   62.1680 C   0  0  0  0  0  0  0  0  0  0  0  0
    8.4773    9.7790   62.0994 N   0  0  0  0  0  0  0  0  0  0  0  0
  1  2  1  0
  2  3  2  0
  3  4  1  0
  4  5  1  0
  4  6  2  0
  6  7  1  0
  6  8  1  0
  8  9  2  0
  9  2  1  0
M  END
$$$$
