
     RDKit          3D

  9  9  0  0  0  0  0  0  0  0999 V2000
   16.1083   22.0265   43.0978 C   0  0  0  0  0  0  0  0  0  0  0  0
   15.0772   20.9418   42.9964 C   0  0  0  0  0  0  0  0  0  0  0  0
   14.5152   20.3846   44.1256 C   0  0  0  0  0  0  0  0  0  0  0  0
   13.5644   19.3861   44.0887 C   0  0  0  0  0  0  0  0  0  0  0  0
   12.9782   18.8066   45.3272 C   0  0  0  0  0  0  0  0  0  0  0  0
   13.1470   18.9129   42.8538 C   0  0  0  0  0  0  0  0  0  0  0  0
   12.1732   17.8877   42.7289 N   0  0  0  0  0  0  0  0  0  0  0  0
   13.7294   19.4918   41.7371 C   0  0  0  0  0  0  0  0  0  0  0  0
   14.6535   20.4633   41.8115 N   0  0  0  0  0  0  0  0  0  0  0  0
  1  2  1  0
  2  3  2  0
  3  4  1  0
  4  5  1  0
  4  6  2  0
  6  7  1  0
  6  8  1  0
  8  9  2  0
  9  2  1  0
M  END
$$$$
