
     RDKit          3D

  9  9  0  0  0  0  0  0  0  0999 V2000
    8.6243    7.0776   65.1303 C   0  0  0  0  0  0  0  0  0  0  0  0
    8.6808    8.1527   64.0858 C   0  0  0  0  0  0  0  0  0  0  0  0
    7.6437    9.0474   63.9268 C   0  0  0  0  0  0  0  0  0  0  0  0
    7.6447   10.0535   62.9834 C   0  0  0  0  0  0  0  0  0  0  0  0
    6.5081   11.0026   62.8386 C   0  0  0  0  0  0  0  0  0  0  0  0
    8.7439   10.1775   62.1470 C   0  0  0  0  0  0  0  0  0  0  0  0
    8.8234   11.1852   61.1505 N   0  0  0  0  0  0  0  0  0  0  0  0
    9.7704    9.2643   62.3303 C   0  0  0  0  0  0  0  0  0  0  0  0
    9.7347    8.2965   63.2606 N   0  0  0  0  0  0  0  0  0  0  0  0
  1  2  1  0
  2  3  2  0
  3  4  1  0
  4  5  1  0
  4  6  2  0
  6  7  1  0
  6  8  1  0
  8  9  2  0
  9  2  1  0
M  END
$$$$
