
     RDKit          3D

  9  9  0  0  0  0  0  0  0  0999 V2000
   19.9482   10.1554   47.2942 C   0  0  0  0  0  0  0  0  0  0  0  0
   20.9146   11.0329   48.0331 C   0  0  0  0  0  0  0  0  0  0  0  0
   22.1243   10.5439   48.4790 C   0  0  0  0  0  0  0  0  0  0  0  0
   23.0480   11.3069   49.1624 C   0  0  0  0  0  0  0  0  0  0  0  0
   24.3449   10.7472   49.6298 C   0  0  0  0  0  0  0  0  0  0  0  0
   22.7507   12.6371   49.4180 C   0  0  0  0  0  0  0  0  0  0  0  0
   23.6466   13.4896   50.1148 N   0  0  0  0  0  0  0  0  0  0  0  0
   21.5280   13.1001   48.9579 C   0  0  0  0  0  0  0  0  0  0  0  0
   20.6525   12.3271   48.2951 N   0  0  0  0  0  0  0  0  0  0  0  0
  1  2  1  0
  2  3  2  0
  3  4  1  0
  4  5  1  0
  4  6  2  0
  6  7  1  0
  6  8  1  0
  8  9  2  0
  9  2  1  0
M  END
$$$$
