
     RDKit          3D

  9  9  0  0  0  0  0  0  0  0999 V2000
    6.6778   11.1914   62.6116 C   0  0  0  0  0  0  0  0  0  0  0  0
    7.8005   10.2097   62.7726 C   0  0  0  0  0  0  0  0  0  0  0  0
    8.6204   10.2398   63.8808 C   0  0  0  0  0  0  0  0  0  0  0  0
    9.6655    9.3617   64.0781 C   0  0  0  0  0  0  0  0  0  0  0  0
   10.5314    9.4221   65.2864 C   0  0  0  0  0  0  0  0  0  0  0  0
    9.9103    8.3947   63.1147 C   0  0  0  0  0  0  0  0  0  0  0  0
   10.9655    7.4538   63.2417 N   0  0  0  0  0  0  0  0  0  0  0  0
    9.0700    8.3890   62.0123 C   0  0  0  0  0  0  0  0  0  0  0  0
    8.0610    9.2608   61.8538 N   0  0  0  0  0  0  0  0  0  0  0  0
  1  2  1  0
  2  3  2  0
  3  4  1  0
  4  5  1  0
  4  6  2  0
  6  7  1  0
  6  8  1  0
  8  9  2  0
  9  2  1  0
M  END
$$$$
