
     RDKit          3D

  9  9  0  0  0  0  0  0  0  0999 V2000
    8.5541    6.9296   65.6240 C   0  0  0  0  0  0  0  0  0  0  0  0
    8.5373    7.8812   64.4647 C   0  0  0  0  0  0  0  0  0  0  0  0
    7.5189    8.7979   64.3095 C   0  0  0  0  0  0  0  0  0  0  0  0
    7.4551    9.6944   63.2633 C   0  0  0  0  0  0  0  0  0  0  0  0
    6.3411   10.6709   63.1259 C   0  0  0  0  0  0  0  0  0  0  0  0
    8.4655    9.6784   62.3135 C   0  0  0  0  0  0  0  0  0  0  0  0
    8.4743   10.5674   61.2069 N   0  0  0  0  0  0  0  0  0  0  0  0
    9.4752    8.7465   62.4958 C   0  0  0  0  0  0  0  0  0  0  0  0
    9.5043    7.8882   63.5281 N   0  0  0  0  0  0  0  0  0  0  0  0
  1  2  1  0
  2  3  2  0
  3  4  1  0
  4  5  1  0
  4  6  2  0
  6  7  1  0
  6  8  1  0
  8  9  2  0
  9  2  1  0
M  END
$$$$
