
     RDKit          3D

  9  9  0  0  0  0  0  0  0  0999 V2000
    6.4184   11.2893   62.9207 C   0  0  0  0  0  0  0  0  0  0  0  0
    7.7740   11.0154   62.3400 C   0  0  0  0  0  0  0  0  0  0  0  0
    8.2652   11.7646   61.2918 C   0  0  0  0  0  0  0  0  0  0  0  0
    9.5033   11.5551   60.7213 C   0  0  0  0  0  0  0  0  0  0  0  0
   10.0030   12.3827   59.5904 C   0  0  0  0  0  0  0  0  0  0  0  0
   10.3017   10.5386   61.2238 C   0  0  0  0  0  0  0  0  0  0  0  0
   11.5880   10.2578   60.6933 N   0  0  0  0  0  0  0  0  0  0  0  0
    9.7815    9.8027   62.2770 C   0  0  0  0  0  0  0  0  0  0  0  0
    8.5701   10.0356   62.8076 N   0  0  0  0  0  0  0  0  0  0  0  0
  1  2  1  0
  2  3  2  0
  3  4  1  0
  4  5  1  0
  4  6  2  0
  6  7  1  0
  6  8  1  0
  8  9  2  0
  9  2  1  0
M  END
$$$$
