
     RDKit          3D

  9  9  0  0  0  0  0  0  0  0999 V2000
    8.6455    6.9958   65.0968 C   0  0  0  0  0  0  0  0  0  0  0  0
    8.6293    8.0808   64.0612 C   0  0  0  0  0  0  0  0  0  0  0  0
    7.5724    8.9614   63.9677 C   0  0  0  0  0  0  0  0  0  0  0  0
    7.5074    9.9757   63.0352 C   0  0  0  0  0  0  0  0  0  0  0  0
    6.3511   10.9091   62.9618 C   0  0  0  0  0  0  0  0  0  0  0  0
    8.5573   10.1232   62.1413 C   0  0  0  0  0  0  0  0  0  0  0  0
    8.5677   11.1408   61.1517 N   0  0  0  0  0  0  0  0  0  0  0  0
    9.6052    9.2237   62.2595 C   0  0  0  0  0  0  0  0  0  0  0  0
    9.6343    8.2474   63.1810 N   0  0  0  0  0  0  0  0  0  0  0  0
  1  2  1  0
  2  3  2  0
  3  4  1  0
  4  5  1  0
  4  6  2  0
  6  7  1  0
  6  8  1  0
  8  9  2  0
  9  2  1  0
M  END
$$$$
