
     RDKit          3D

  9  9  0  0  0  0  0  0  0  0999 V2000
    8.6922    6.9449   65.2806 C   0  0  0  0  0  0  0  0  0  0  0  0
    8.6826    7.9910   64.2057 C   0  0  0  0  0  0  0  0  0  0  0  0
    7.6236    8.8636   64.0695 C   0  0  0  0  0  0  0  0  0  0  0  0
    7.5644    9.8426   63.0998 C   0  0  0  0  0  0  0  0  0  0  0  0
    6.4057   10.7683   62.9807 C   0  0  0  0  0  0  0  0  0  0  0  0
    8.6227    9.9613   62.2115 C   0  0  0  0  0  0  0  0  0  0  0  0
    8.6395   10.9419   61.1853 N   0  0  0  0  0  0  0  0  0  0  0  0
    9.6725    9.0708   62.3730 C   0  0  0  0  0  0  0  0  0  0  0  0
    9.6957    8.1291   63.3300 N   0  0  0  0  0  0  0  0  0  0  0  0
  1  2  1  0
  2  3  2  0
  3  4  1  0
  4  5  1  0
  4  6  2  0
  6  7  1  0
  6  8  1  0
  8  9  2  0
  9  2  1  0
M  END
$$$$
