
     RDKit          3D

  9  9  0  0  0  0  0  0  0  0999 V2000
    8.4903    6.9823   65.4360 C   0  0  0  0  0  0  0  0  0  0  0  0
    8.5289    7.9869   64.3229 C   0  0  0  0  0  0  0  0  0  0  0  0
    7.5057    8.8941   64.1454 C   0  0  0  0  0  0  0  0  0  0  0  0
    7.4914    9.8376   63.1395 C   0  0  0  0  0  0  0  0  0  0  0  0
    6.3705   10.8023   62.9764 C   0  0  0  0  0  0  0  0  0  0  0  0
    8.5596    9.8819   62.2563 C   0  0  0  0  0  0  0  0  0  0  0  0
    8.6217   10.8219   61.1944 N   0  0  0  0  0  0  0  0  0  0  0  0
    9.5728    8.9581   62.4596 C   0  0  0  0  0  0  0  0  0  0  0  0
    9.5527    8.0527   63.4511 N   0  0  0  0  0  0  0  0  0  0  0  0
  1  2  1  0
  2  3  2  0
  3  4  1  0
  4  5  1  0
  4  6  2  0
  6  7  1  0
  6  8  1  0
  8  9  2  0
  9  2  1  0
M  END
$$$$
