
     RDKit          3D

  9  9  0  0  0  0  0  0  0  0999 V2000
    6.4529   10.8192   62.7998 C   0  0  0  0  0  0  0  0  0  0  0  0
    7.5816    9.8377   62.9121 C   0  0  0  0  0  0  0  0  0  0  0  0
    7.6993    9.0089   64.0079 C   0  0  0  0  0  0  0  0  0  0  0  0
    8.7162    8.0899   64.1609 C   0  0  0  0  0  0  0  0  0  0  0  0
    8.8135    7.2103   65.3569 C   0  0  0  0  0  0  0  0  0  0  0  0
    9.6746    7.9888   63.1637 C   0  0  0  0  0  0  0  0  0  0  0  0
   10.7528    7.0690   63.2444 N   0  0  0  0  0  0  0  0  0  0  0  0
    9.5302    8.8343   62.0749 C   0  0  0  0  0  0  0  0  0  0  0  0
    8.5256    9.7180   61.9599 N   0  0  0  0  0  0  0  0  0  0  0  0
  1  2  1  0
  2  3  2  0
  3  4  1  0
  4  5  1  0
  4  6  2  0
  6  7  1  0
  6  8  1  0
  8  9  2  0
  9  2  1  0
M  END
$$$$
