
     RDKit          3D

  9  9  0  0  0  0  0  0  0  0999 V2000
    9.3891    7.3899   65.0392 C   0  0  0  0  0  0  0  0  0  0  0  0
    8.9939    8.4148   64.0177 C   0  0  0  0  0  0  0  0  0  0  0  0
    7.8245    9.1342   64.1451 C   0  0  0  0  0  0  0  0  0  0  0  0
    7.4145   10.0869   63.2359 C   0  0  0  0  0  0  0  0  0  0  0  0
    6.1458   10.8456   63.4038 C   0  0  0  0  0  0  0  0  0  0  0  0
    8.2162   10.3397   62.1329 C   0  0  0  0  0  0  0  0  0  0  0  0
    7.8664   11.3036   61.1514 N   0  0  0  0  0  0  0  0  0  0  0  0
    9.3849    9.6014   62.0318 C   0  0  0  0  0  0  0  0  0  0  0  0
    9.7523    8.6807   62.9377 N   0  0  0  0  0  0  0  0  0  0  0  0
  1  2  1  0
  2  3  2  0
  3  4  1  0
  4  5  1  0
  4  6  2  0
  6  7  1  0
  6  8  1  0
  8  9  2  0
  9  2  1  0
M  END
$$$$
