
     RDKit          3D

  9  9  0  0  0  0  0  0  0  0999 V2000
    8.6278    7.0357   65.1025 C   0  0  0  0  0  0  0  0  0  0  0  0
    8.6545    8.1366   64.0840 C   0  0  0  0  0  0  0  0  0  0  0  0
    7.5835    8.9913   63.9298 C   0  0  0  0  0  0  0  0  0  0  0  0
    7.5562   10.0186   63.0098 C   0  0  0  0  0  0  0  0  0  0  0  0
    6.3835   10.9233   62.8696 C   0  0  0  0  0  0  0  0  0  0  0  0
    8.6612   10.2074   62.1935 C   0  0  0  0  0  0  0  0  0  0  0  0
    8.7131   11.2409   61.2217 N   0  0  0  0  0  0  0  0  0  0  0  0
    9.7220    9.3332   62.3713 C   0  0  0  0  0  0  0  0  0  0  0  0
    9.7132    8.3431   63.2785 N   0  0  0  0  0  0  0  0  0  0  0  0
  1  2  1  0
  2  3  2  0
  3  4  1  0
  4  5  1  0
  4  6  2  0
  6  7  1  0
  6  8  1  0
  8  9  2  0
  9  2  1  0
M  END
$$$$
