
     RDKit          3D

  9  9  0  0  0  0  0  0  0  0999 V2000
    6.4688   11.0825   62.5914 C   0  0  0  0  0  0  0  0  0  0  0  0
    7.7103   10.2435   62.6613 C   0  0  0  0  0  0  0  0  0  0  0  0
    7.9991    9.4893   63.7790 C   0  0  0  0  0  0  0  0  0  0  0  0
    9.1252    8.7015   63.8951 C   0  0  0  0  0  0  0  0  0  0  0  0
    9.4066    7.8996   65.1162 C   0  0  0  0  0  0  0  0  0  0  0  0
   10.0187    8.6612   62.8352 C   0  0  0  0  0  0  0  0  0  0  0  0
   11.2007    7.8761   62.8747 N   0  0  0  0  0  0  0  0  0  0  0  0
    9.7019    9.4294   61.7258 C   0  0  0  0  0  0  0  0  0  0  0  0
    8.5948   10.1853   61.6481 N   0  0  0  0  0  0  0  0  0  0  0  0
  1  2  1  0
  2  3  2  0
  3  4  1  0
  4  5  1  0
  4  6  2  0
  6  7  1  0
  6  8  1  0
  8  9  2  0
  9  2  1  0
M  END
$$$$
