
     RDKit          3D

  9  9  0  0  0  0  0  0  0  0999 V2000
   22.9414   15.0014   51.3958 C   0  0  0  0  0  0  0  0  0  0  0  0
   23.7306   16.2766   51.3617 C   0  0  0  0  0  0  0  0  0  0  0  0
   23.1442   17.4682   50.9909 C   0  0  0  0  0  0  0  0  0  0  0  0
   23.8233   18.6677   50.9427 C   0  0  0  0  0  0  0  0  0  0  0  0
   23.1595   19.9362   50.5377 C   0  0  0  0  0  0  0  0  0  0  0  0
   25.1673   18.6833   51.2840 C   0  0  0  0  0  0  0  0  0  0  0  0
   25.9376   19.8754   51.2605 N   0  0  0  0  0  0  0  0  0  0  0  0
   25.7290   17.4709   51.6524 C   0  0  0  0  0  0  0  0  0  0  0  0
   25.0360   16.3212   51.6878 N   0  0  0  0  0  0  0  0  0  0  0  0
  1  2  1  0
  2  3  2  0
  3  4  1  0
  4  5  1  0
  4  6  2  0
  6  7  1  0
  6  8  1  0
  8  9  2  0
  9  2  1  0
M  END
$$$$
