
     RDKit          3D

  9  9  0  0  0  0  0  0  0  0999 V2000
    8.4028    6.9804   65.2711 C   0  0  0  0  0  0  0  0  0  0  0  0
    8.5071    8.0165   64.1915 C   0  0  0  0  0  0  0  0  0  0  0  0
    7.5011    8.9373   63.9875 C   0  0  0  0  0  0  0  0  0  0  0  0
    7.5465    9.9097   63.0104 C   0  0  0  0  0  0  0  0  0  0  0  0
    6.4427   10.8884   62.8173 C   0  0  0  0  0  0  0  0  0  0  0  0
    8.6600    9.9702   62.1860 C   0  0  0  0  0  0  0  0  0  0  0  0
    8.7846   10.9400   61.1570 N   0  0  0  0  0  0  0  0  0  0  0  0
    9.6544    9.0321   62.4148 C   0  0  0  0  0  0  0  0  0  0  0  0
    9.5757    8.0987   63.3769 N   0  0  0  0  0  0  0  0  0  0  0  0
  1  2  1  0
  2  3  2  0
  3  4  1  0
  4  5  1  0
  4  6  2  0
  6  7  1  0
  6  8  1  0
  8  9  2  0
  9  2  1  0
M  END
$$$$
