
     RDKit          3D

  9  9  0  0  0  0  0  0  0  0999 V2000
    9.1577   12.7087   59.3812 C   0  0  0  0  0  0  0  0  0  0  0  0
    9.0446   11.7383   60.5194 C   0  0  0  0  0  0  0  0  0  0  0  0
    7.9034   11.6739   61.2906 C   0  0  0  0  0  0  0  0  0  0  0  0
    7.7475   10.8013   62.3473 C   0  0  0  0  0  0  0  0  0  0  0  0
    6.5017   10.7580   63.1596 C   0  0  0  0  0  0  0  0  0  0  0  0
    8.7898    9.9403   62.6559 C   0  0  0  0  0  0  0  0  0  0  0  0
    8.7095    9.0124   63.7271 N   0  0  0  0  0  0  0  0  0  0  0  0
    9.9237   10.0280   61.8635 C   0  0  0  0  0  0  0  0  0  0  0  0
   10.0401   10.8912   60.8414 N   0  0  0  0  0  0  0  0  0  0  0  0
  1  2  1  0
  2  3  2  0
  3  4  1  0
  4  5  1  0
  4  6  2  0
  6  7  1  0
  6  8  1  0
  8  9  2  0
  9  2  1  0
M  END
$$$$
