
     RDKit          3D

  9  9  0  0  0  0  0  0  0  0999 V2000
    8.8182    7.1334   65.1030 C   0  0  0  0  0  0  0  0  0  0  0  0
    8.7774    8.1930   64.0421 C   0  0  0  0  0  0  0  0  0  0  0  0
    7.7089    9.0587   63.9399 C   0  0  0  0  0  0  0  0  0  0  0  0
    7.6213   10.0496   62.9845 C   0  0  0  0  0  0  0  0  0  0  0  0
    6.4532   10.9674   62.9023 C   0  0  0  0  0  0  0  0  0  0  0  0
    8.6592   10.1882   62.0754 C   0  0  0  0  0  0  0  0  0  0  0  0
    8.6463   11.1819   61.0618 N   0  0  0  0  0  0  0  0  0  0  0  0
    9.7192    9.3041   62.2027 C   0  0  0  0  0  0  0  0  0  0  0  0
    9.7703    8.3504   63.1468 N   0  0  0  0  0  0  0  0  0  0  0  0
  1  2  1  0
  2  3  2  0
  3  4  1  0
  4  5  1  0
  4  6  2  0
  6  7  1  0
  6  8  1  0
  8  9  2  0
  9  2  1  0
M  END
$$$$
