
     RDKit          3D

  9  9  0  0  0  0  0  0  0  0999 V2000
   19.9496   16.8008   51.2031 C   0  0  0  0  0  0  0  0  0  0  0  0
   21.3763   17.2582   51.1297 C   0  0  0  0  0  0  0  0  0  0  0  0
   21.6967   18.5275   50.6965 C   0  0  0  0  0  0  0  0  0  0  0  0
   22.9903   18.9979   50.6100 C   0  0  0  0  0  0  0  0  0  0  0  0
   23.3011   20.3742   50.1379 C   0  0  0  0  0  0  0  0  0  0  0  0
   24.0286   18.1550   50.9766 C   0  0  0  0  0  0  0  0  0  0  0  0
   25.3872   18.5619   50.9170 N   0  0  0  0  0  0  0  0  0  0  0  0
   23.6760   16.8857   51.4078 C   0  0  0  0  0  0  0  0  0  0  0  0
   22.4039   16.4617   51.4790 N   0  0  0  0  0  0  0  0  0  0  0  0
  1  2  1  0
  2  3  2  0
  3  4  1  0
  4  5  1  0
  4  6  2  0
  6  7  1  0
  6  8  1  0
  8  9  2  0
  9  2  1  0
M  END
$$$$
