
     RDKit          3D

  9  9  0  0  0  0  0  0  0  0999 V2000
    9.2887   12.5480   59.6328 C   0  0  0  0  0  0  0  0  0  0  0  0
    9.0960   11.5405   60.7273 C   0  0  0  0  0  0  0  0  0  0  0  0
    7.9433   11.5213   61.4838 C   0  0  0  0  0  0  0  0  0  0  0  0
    7.7156   10.6177   62.5006 C   0  0  0  0  0  0  0  0  0  0  0  0
    6.4595   10.6248   63.2980 C   0  0  0  0  0  0  0  0  0  0  0  0
    8.6937    9.6758   62.7824 C   0  0  0  0  0  0  0  0  0  0  0  0
    8.5374    8.7113   63.8121 N   0  0  0  0  0  0  0  0  0  0  0  0
    9.8409    9.7196   62.0057 C   0  0  0  0  0  0  0  0  0  0  0  0
   10.0281   10.6151   61.0227 N   0  0  0  0  0  0  0  0  0  0  0  0
  1  2  1  0
  2  3  2  0
  3  4  1  0
  4  5  1  0
  4  6  2  0
  6  7  1  0
  6  8  1  0
  8  9  2  0
  9  2  1  0
M  END
$$$$
