7OSO_0V1_holo_aligned_esmfold_protein
     RDKit          3D

  7  6  0  0  0  0  0  0  0  0999 V2000
   31.8314    7.5115    6.8444 O   0  0  0  0  0  0  0  0  0  0  0  0
   30.7464    8.1185    7.5261 C   0  0  0  0  0  0  0  0  0  0  0  0
   31.1444    8.7560    8.8501 C   0  0  0  0  0  0  0  0  0  0  0  0
   31.6910    7.8063    9.9384 C   0  0  2  0  0  0  0  0  0  0  0  0
   31.3923    8.3634   11.2340 O   0  0  0  0  0  0  0  0  0  0  0  0
   33.2192    7.6390    9.8364 C   0  0  0  0  0  0  0  0  0  0  0  0
   33.7396    6.6952   10.7875 O   0  0  0  0  0  0  0  0  0  0  0  0
  1  2  1  0
  2  3  1  0
  3  4  1  0
  4  5  1  1
  4  6  1  0
  6  7  1  0
M  END
