
     RDKit          3D

  7  6  0  0  0  0  0  0  0  0999 V2000
   33.3036    9.1186   10.6345 O   0  0  0  0  0  0  0  0  0  0  0  0
   32.6059    7.9147   10.5934 C   0  0  0  0  0  0  0  0  0  0  0  0
   31.2011    8.1999   10.0924 C   0  0  0  0  0  0  0  0  0  0  0  0
   30.4836    6.8795   10.0086 C   0  0  2  0  0  0  0  0  0  0  0  0
   31.3468    5.8801    9.6272 O   0  0  0  0  0  0  0  0  0  0  0  0
   29.2910    6.9628    9.0570 C   0  0  0  0  0  0  0  0  0  0  0  0
   28.2158    7.5932    9.6747 O   0  0  0  0  0  0  0  0  0  0  0  0
  1  2  1  0
  2  3  1  0
  3  4  1  0
  4  5  1  6
  4  6  1  0
  6  7  1  0
M  END
$$$$
