
     RDKit          3D

  7  6  0  0  0  0  0  0  0  0999 V2000
   30.5002    8.9645   11.8373 O   0  0  0  0  0  0  0  0  0  0  0  0
   31.5862    8.1240   12.0647 C   0  0  0  0  0  0  0  0  0  0  0  0
   32.3941    8.0386   10.7818 C   0  0  0  0  0  0  0  0  0  0  0  0
   31.8286    6.8996    9.9766 C   0  0  2  0  0  0  0  0  0  0  0  0
   32.5161    5.7366   10.2298 O   0  0  0  0  0  0  0  0  0  0  0  0
   31.8387    7.2251    8.4838 C   0  0  0  0  0  0  0  0  0  0  0  0
   30.7806    6.5934    7.8385 O   0  0  0  0  0  0  0  0  0  0  0  0
  1  2  1  0
  2  3  1  0
  3  4  1  0
  4  5  1  6
  4  6  1  0
  6  7  1  0
M  END
$$$$
