
     RDKit          3D

  7  6  0  0  0  0  0  0  0  0999 V2000
   29.9176    9.8890   11.7414 O   0  0  0  0  0  0  0  0  0  0  0  0
   29.6637    8.5271   11.6058 C   0  0  0  0  0  0  0  0  0  0  0  0
   29.3729    8.2444   10.1424 C   0  0  0  0  0  0  0  0  0  0  0  0
   28.0404    7.5471   10.0818 C   0  0  2  0  0  0  0  0  0  0  0  0
   28.1414    6.2625   10.5603 O   0  0  0  0  0  0  0  0  0  0  0  0
   27.4803    7.5571    8.6603 C   0  0  0  0  0  0  0  0  0  0  0  0
   26.6029    6.4941    8.4730 O   0  0  0  0  0  0  0  0  0  0  0  0
  1  2  1  0
  2  3  1  0
  3  4  1  0
  4  5  1  6
  4  6  1  0
  6  7  1  0
M  END
$$$$
