
     RDKit          3D

  7  6  0  0  0  0  0  0  0  0999 V2000
   33.4228    9.0137   10.5095 O   0  0  0  0  0  0  0  0  0  0  0  0
   32.7307    7.8105   10.4046 C   0  0  0  0  0  0  0  0  0  0  0  0
   31.2706    8.1278   10.1338 C   0  0  0  0  0  0  0  0  0  0  0  0
   30.5194    6.8240   10.1698 C   0  0  2  0  0  0  0  0  0  0  0  0
   31.0784    5.9164    9.3020 O   0  0  0  0  0  0  0  0  0  0  0  0
   29.0385    7.0356    9.8585 C   0  0  0  0  0  0  0  0  0  0  0  0
   28.8496    7.2373    8.4952 O   0  0  0  0  0  0  0  0  0  0  0  0
  1  2  1  0
  2  3  1  0
  3  4  1  0
  4  5  1  6
  4  6  1  0
  6  7  1  0
M  END
$$$$
