
     RDKit          3D

  7  6  0  0  0  0  0  0  0  0999 V2000
   29.1779    7.3289    8.5624 O   0  0  0  0  0  0  0  0  0  0  0  0
   29.4546    6.7662    9.8051 C   0  0  0  0  0  0  0  0  0  0  0  0
   30.6418    7.5008   10.4023 C   0  0  0  0  0  0  0  0  0  0  0  0
   31.8844    6.8840    9.8183 C   0  0  2  0  0  0  0  0  0  0  0  0
   31.8715    5.5189    9.9789 O   0  0  0  0  0  0  0  0  0  0  0  0
   33.1418    7.4939   10.4361 C   0  0  0  0  0  0  0  0  0  0  0  0
   33.0983    8.8823   10.3630 O   0  0  0  0  0  0  0  0  0  0  0  0
  1  2  1  0
  2  3  1  0
  3  4  1  0
  4  5  1  1
  4  6  1  0
  6  7  1  0
M  END
$$$$
