
     RDKit          3D

  7  6  0  0  0  0  0  0  0  0999 V2000
   28.2543    6.6781    8.8876 O   0  0  0  0  0  0  0  0  0  0  0  0
   29.2080    7.3231    9.6700 C   0  0  0  0  0  0  0  0  0  0  0  0
   30.5826    6.8941    9.1882 C   0  0  0  0  0  0  0  0  0  0  0  0
   31.5264    7.0428   10.3512 C   0  0  2  0  0  0  0  0  0  0  0  0
   31.7069    8.3688   10.6648 O   0  0  0  0  0  0  0  0  0  0  0  0
   32.8644    6.3639   10.0619 C   0  0  0  0  0  0  0  0  0  0  0  0
   33.6441    7.1565    9.2260 O   0  0  0  0  0  0  0  0  0  0  0  0
  1  2  1  0
  2  3  1  0
  3  4  1  0
  4  5  1  6
  4  6  1  0
  6  7  1  0
M  END
$$$$
