
     RDKit          3D

  7  6  0  0  0  0  0  0  0  0999 V2000
   33.0090    8.5798   10.7771 O   0  0  0  0  0  0  0  0  0  0  0  0
   31.9628    7.6634   10.7181 C   0  0  0  0  0  0  0  0  0  0  0  0
   30.9688    8.1478    9.6773 C   0  0  0  0  0  0  0  0  0  0  0  0
   29.7262    7.3122    9.8282 C   0  0  2  0  0  0  0  0  0  0  0  0
   30.0332    5.9728    9.7916 O   0  0  0  0  0  0  0  0  0  0  0  0
   28.6948    7.6647    8.7573 C   0  0  0  0  0  0  0  0  0  0  0  0
   27.5546    6.8808    8.8999 O   0  0  0  0  0  0  0  0  0  0  0  0
  1  2  1  0
  2  3  1  0
  3  4  1  0
  4  5  1  6
  4  6  1  0
  6  7  1  0
M  END
$$$$
