
     RDKit          3D

  7  6  0  0  0  0  0  0  0  0999 V2000
   31.6776    9.0237   11.6102 O   0  0  0  0  0  0  0  0  0  0  0  0
   32.2394    7.8724   11.0654 C   0  0  0  0  0  0  0  0  0  0  0  0
   31.7101    7.7123    9.6512 C   0  0  0  0  0  0  0  0  0  0  0  0
   31.7488    6.2430    9.3270 C   0  0  2  0  0  0  0  0  0  0  0  0
   33.0368    5.7663    9.3828 O   0  0  0  0  0  0  0  0  0  0  0  0
   31.1236    5.9663    7.9605 C   0  0  0  0  0  0  0  0  0  0  0  0
   31.7733    4.9098    7.3306 O   0  0  0  0  0  0  0  0  0  0  0  0
  1  2  1  0
  2  3  1  0
  3  4  1  0
  4  5  1  6
  4  6  1  0
  6  7  1  0
M  END
$$$$
