7OSO_0V1
     RDKit          3D

  7  6  0  0  0  0  0  0  0  0999 V2000
   32.0422    8.6518   11.2788 O   0  0  0  0  0  0  0  0  0  0  0  0
   32.5226    8.1632   10.0218 C   0  0  0  0  0  0  0  0  0  0  0  0
   31.3761    8.0838    9.0161 C   0  0  0  0  0  0  0  0  0  0  0  0
   30.2961    7.0989    9.4780 C   0  0  2  0  0  0  0  0  0  0  0  0
   30.8033    5.7790    9.2677 O   0  0  0  0  0  0  0  0  0  0  0  0
   28.9677    7.3363    8.7297 C   0  0  0  0  0  0  0  0  0  0  0  0
   28.9123    6.6453    7.4766 O   0  0  0  0  0  0  0  0  0  0  0  0
  1  2  1  0
  2  3  1  0
  3  4  1  0
  4  5  1  6
  4  6  1  0
  6  7  1  0
M  END
