
     RDKit          3D

  7  6  0  0  0  0  0  0  0  0999 V2000
   33.3258    9.0774   10.4384 O   0  0  0  0  0  0  0  0  0  0  0  0
   32.5950    7.8943   10.3769 C   0  0  0  0  0  0  0  0  0  0  0  0
   31.1430    8.2496   10.1096 C   0  0  0  0  0  0  0  0  0  0  0  0
   30.3489    6.9750   10.2100 C   0  0  2  0  0  0  0  0  0  0  0  0
   30.8367    6.0282    9.3410 O   0  0  0  0  0  0  0  0  0  0  0  0
   28.8640    7.2327    9.9582 C   0  0  0  0  0  0  0  0  0  0  0  0
   28.6222    7.4113    8.6001 O   0  0  0  0  0  0  0  0  0  0  0  0
  1  2  1  0
  2  3  1  0
  3  4  1  0
  4  5  1  6
  4  6  1  0
  6  7  1  0
M  END
$$$$
