
     RDKit          3D

  7  6  0  0  0  0  0  0  0  0999 V2000
   33.1611    9.0603   10.7803 O   0  0  0  0  0  0  0  0  0  0  0  0
   33.1625    7.7233   10.3927 C   0  0  0  0  0  0  0  0  0  0  0  0
   31.9175    7.4716    9.5606 C   0  0  0  0  0  0  0  0  0  0  0  0
   31.0715    6.4825   10.3165 C   0  0  2  0  0  0  0  0  0  0  0  0
   31.2638    5.2096    9.8347 O   0  0  0  0  0  0  0  0  0  0  0  0
   29.5943    6.8691   10.2611 C   0  0  0  0  0  0  0  0  0  0  0  0
   29.1423    6.8856    8.9456 O   0  0  0  0  0  0  0  0  0  0  0  0
  1  2  1  0
  2  3  1  0
  3  4  1  0
  4  5  1  6
  4  6  1  0
  6  7  1  0
M  END
$$$$
