
     RDKit          3D

  7  6  0  0  0  0  0  0  0  0999 V2000
   31.9751    9.1276   11.3905 O   0  0  0  0  0  0  0  0  0  0  0  0
   32.1667    7.7925   11.0463 C   0  0  0  0  0  0  0  0  0  0  0  0
   31.9450    7.6539    9.5505 C   0  0  0  0  0  0  0  0  0  0  0  0
   31.8172    6.1835    9.2554 C   0  0  2  0  0  0  0  0  0  0  0  0
   32.9528    5.5101    9.6381 O   0  0  0  0  0  0  0  0  0  0  0  0
   31.5140    5.9452    7.7769 C   0  0  0  0  0  0  0  0  0  0  0  0
   31.6302    4.5944    7.4657 O   0  0  0  0  0  0  0  0  0  0  0  0
  1  2  1  0
  2  3  1  0
  3  4  1  0
  4  5  1  6
  4  6  1  0
  6  7  1  0
M  END
$$$$
