
     RDKit          3D

  7  6  0  0  0  0  0  0  0  0999 V2000
   29.7342    9.8860   12.2548 O   0  0  0  0  0  0  0  0  0  0  0  0
   30.0415    8.8376   11.3922 C   0  0  0  0  0  0  0  0  0  0  0  0
   28.9535    8.7610   10.3357 C   0  0  0  0  0  0  0  0  0  0  0  0
   28.2358    7.4526   10.5323 C   0  0  2  0  0  0  0  0  0  0  0  0
   28.9511    6.4175    9.9789 O   0  0  0  0  0  0  0  0  0  0  0  0
   26.8228    7.5098    9.9536 C   0  0  0  0  0  0  0  0  0  0  0  0
   26.8098    7.0315    8.6475 O   0  0  0  0  0  0  0  0  0  0  0  0
  1  2  1  0
  2  3  1  0
  3  4  1  0
  4  5  1  6
  4  6  1  0
  6  7  1  0
M  END
$$$$
