
     RDKit          3D

  7  6  0  0  0  0  0  0  0  0999 V2000
   30.6482    8.6892   11.6400 O   0  0  0  0  0  0  0  0  0  0  0  0
   31.9676    8.2470   11.6768 C   0  0  0  0  0  0  0  0  0  0  0  0
   32.4380    8.0449   10.2472 C   0  0  0  0  0  0  0  0  0  0  0  0
   32.0470    6.6482    9.8449 C   0  0  2  0  0  0  0  0  0  0  0  0
   32.8201    5.7191   10.4995 O   0  0  0  0  0  0  0  0  0  0  0  0
   32.1416    6.4669    8.3307 C   0  0  0  0  0  0  0  0  0  0  0  0
   31.4325    5.3399    7.9281 O   0  0  0  0  0  0  0  0  0  0  0  0
  1  2  1  0
  2  3  1  0
  3  4  1  0
  4  5  1  1
  4  6  1  0
  6  7  1  0
M  END
$$$$
