
     RDKit          3D

  7  6  0  0  0  0  0  0  0  0999 V2000
   29.0856    7.3249    8.5163 O   0  0  0  0  0  0  0  0  0  0  0  0
   29.2744    6.9526    9.8442 C   0  0  0  0  0  0  0  0  0  0  0  0
   30.4605    7.7291   10.3883 C   0  0  0  0  0  0  0  0  0  0  0  0
   31.6772    7.2674    9.6320 C   0  0  2  0  0  0  0  0  0  0  0  0
   31.9711    5.9593    9.9354 O   0  0  0  0  0  0  0  0  0  0  0  0
   32.8743    8.1745    9.9127 C   0  0  0  0  0  0  0  0  0  0  0  0
   33.7174    7.5939   10.8546 O   0  0  0  0  0  0  0  0  0  0  0  0
  1  2  1  0
  2  3  1  0
  3  4  1  0
  4  5  1  1
  4  6  1  0
  6  7  1  0
M  END
$$$$
