
     RDKit          3D

  7  6  0  0  0  0  0  0  0  0999 V2000
   33.0875    9.0811   10.6205 O   0  0  0  0  0  0  0  0  0  0  0  0
   32.3054    7.9321   10.6984 C   0  0  0  0  0  0  0  0  0  0  0  0
   31.5545    7.7822    9.3871 C   0  0  0  0  0  0  0  0  0  0  0  0
   30.2982    7.0073    9.6816 C   0  0  2  0  0  0  0  0  0  0  0  0
   30.3681    5.7446    9.1432 O   0  0  0  0  0  0  0  0  0  0  0  0
   29.0638    7.7499    9.1723 C   0  0  0  0  0  0  0  0  0  0  0  0
   27.9018    7.0971    9.5703 O   0  0  0  0  0  0  0  0  0  0  0  0
  1  2  1  0
  2  3  1  0
  3  4  1  0
  4  5  1  6
  4  6  1  0
  6  7  1  0
M  END
$$$$
