
     RDKit          3D

  7  6  0  0  0  0  0  0  0  0999 V2000
   31.7868    8.7389   12.1074 O   0  0  0  0  0  0  0  0  0  0  0  0
   32.7356    8.0464   11.3603 C   0  0  0  0  0  0  0  0  0  0  0  0
   32.2880    8.0494    9.9093 C   0  0  0  0  0  0  0  0  0  0  0  0
   31.3245    6.9055    9.7401 C   0  0  2  0  0  0  0  0  0  0  0  0
   31.9369    5.7078   10.0226 O   0  0  0  0  0  0  0  0  0  0  0  0
   30.7278    6.8945    8.3335 C   0  0  0  0  0  0  0  0  0  0  0  0
   29.3389    6.9448    8.3913 O   0  0  0  0  0  0  0  0  0  0  0  0
  1  2  1  0
  2  3  1  0
  3  4  1  0
  4  5  1  6
  4  6  1  0
  6  7  1  0
M  END
$$$$
