
     RDKit          3D

  7  6  0  0  0  0  0  0  0  0999 V2000
   29.7235    9.3021   11.9621 O   0  0  0  0  0  0  0  0  0  0  0  0
   30.8830    8.5359   12.0412 C   0  0  0  0  0  0  0  0  0  0  0  0
   31.5095    8.4833   10.6590 C   0  0  0  0  0  0  0  0  0  0  0  0
   32.1413    7.1254   10.5099 C   0  0  2  0  0  0  0  0  0  0  0  0
   33.3542    7.0797   11.1552 O   0  0  0  0  0  0  0  0  0  0  0  0
   32.2930    6.7498    9.0366 C   0  0  0  0  0  0  0  0  0  0  0  0
   32.1893    5.3727    8.8700 O   0  0  0  0  0  0  0  0  0  0  0  0
  1  2  1  0
  2  3  1  0
  3  4  1  0
  4  5  1  6
  4  6  1  0
  6  7  1  0
M  END
$$$$
