
     RDKit          3D

  7  6  0  0  0  0  0  0  0  0999 V2000
   33.1200    9.0826   10.7901 O   0  0  0  0  0  0  0  0  0  0  0  0
   32.3342    7.9405   10.6638 C   0  0  0  0  0  0  0  0  0  0  0  0
   31.2200    8.2407    9.6767 C   0  0  0  0  0  0  0  0  0  0  0  0
   30.0966    7.2835    9.9715 C   0  0  2  0  0  0  0  0  0  0  0  0
   30.5278    5.9821    9.8727 O   0  0  0  0  0  0  0  0  0  0  0  0
   28.9054    7.5348    9.0481 C   0  0  0  0  0  0  0  0  0  0  0  0
   27.7467    6.9818    9.5834 O   0  0  0  0  0  0  0  0  0  0  0  0
  1  2  1  0
  2  3  1  0
  3  4  1  0
  4  5  1  6
  4  6  1  0
  6  7  1  0
M  END
$$$$
