
     RDKit          3D

  7  6  0  0  0  0  0  0  0  0999 V2000
   33.0432    8.9800   10.4329 O   0  0  0  0  0  0  0  0  0  0  0  0
   32.2257    7.8537   10.4059 C   0  0  0  0  0  0  0  0  0  0  0  0
   30.7940    8.3143   10.1958 C   0  0  0  0  0  0  0  0  0  0  0  0
   29.9171    7.0949   10.2936 C   0  0  2  0  0  0  0  0  0  0  0  0
   30.3772    6.0973    9.4675 O   0  0  0  0  0  0  0  0  0  0  0  0
   28.4626    7.4386    9.9759 C   0  0  0  0  0  0  0  0  0  0  0  0
   28.1602    7.1137    8.6576 O   0  0  0  0  0  0  0  0  0  0  0  0
  1  2  1  0
  2  3  1  0
  3  4  1  0
  4  5  1  6
  4  6  1  0
  6  7  1  0
M  END
$$$$
