7WPW_F15_holo_aligned_esmfold_protein
     RDKit          3D

 17 16  0  0  0  0  0  0  0  0999 V2000
    7.4562  -20.1543    1.1836 C   0  0  0  0  0  0  0  0  0  0  0  0
    7.5038  -21.4577    0.4113 C   0  0  0  0  0  0  0  0  0  0  0  0
    6.2402  -21.6492   -0.4427 C   0  0  0  0  0  0  0  0  0  0  0  0
    6.2937  -22.9245   -1.2998 C   0  0  0  0  0  0  0  0  0  0  0  0
    7.4438  -22.9021   -2.2794 C   0  0  0  0  0  0  0  0  0  0  0  0
    7.2294  -23.7911   -3.5188 C   0  0  0  0  0  0  0  0  0  0  0  0
    6.5676  -23.0344   -4.6771 C   0  0  0  0  0  0  0  0  0  0  0  0
    7.5159  -21.9947   -5.2967 C   0  0  0  0  0  0  0  0  0  0  0  0
    6.7749  -21.0918   -6.2617 C   0  0  0  0  0  0  0  0  0  0  0  0
    7.6597  -20.0141   -6.9161 C   0  0  0  0  0  0  0  0  0  0  0  0
    8.4583  -19.1323   -5.9412 C   0  0  0  0  0  0  0  0  0  0  0  0
    7.5779  -18.4173   -4.9046 C   0  0  0  0  0  0  0  0  0  0  0  0
    8.4615  -17.6686   -3.9060 C   0  0  0  0  0  0  0  0  0  0  0  0
    7.6151  -16.9822   -2.8260 C   0  0  0  0  0  0  0  0  0  0  0  0
    8.4734  -16.3435   -1.7219 C   0  0  0  0  0  0  0  0  0  0  0  0
    7.8899  -15.6936   -0.8627 O   0  0  0  0  0  0  0  0  0  0  0  0
    9.8175  -16.5409   -1.7235 O   0  0  0  0  0  0  0  0  0  0  0  0
  1  2  1  0
  2  3  1  0
  3  4  1  0
  4  5  1  0
  5  6  1  0
  6  7  1  0
  7  8  1  0
  8  9  1  0
  9 10  1  0
 10 11  1  0
 11 12  1  0
 12 13  1  0
 13 14  1  0
 14 15  1  0
 15 16  2  0
 15 17  1  0
M  END
