
     RDKit          3D

 17 16  0  0  0  0  0  0  0  0999 V2000
    7.2308  -21.4595    0.4617 C   0  0  0  0  0  0  0  0  0  0  0  0
    7.8322  -22.6998   -0.1159 C   0  0  0  0  0  0  0  0  0  0  0  0
    6.6817  -23.6131   -0.5818 C   0  0  0  0  0  0  0  0  0  0  0  0
    7.2216  -24.8246   -1.2317 C   0  0  0  0  0  0  0  0  0  0  0  0
    7.3246  -24.9279   -2.6837 C   0  0  0  0  0  0  0  0  0  0  0  0
    7.1974  -23.7782   -3.5939 C   0  0  0  0  0  0  0  0  0  0  0  0
    7.2969  -24.0717   -5.0312 C   0  0  0  0  0  0  0  0  0  0  0  0
    7.2624  -22.8137   -5.9016 C   0  0  0  0  0  0  0  0  0  0  0  0
    6.8152  -21.5937   -5.1765 C   0  0  0  0  0  0  0  0  0  0  0  0
    6.9126  -20.4199   -6.1220 C   0  0  0  0  0  0  0  0  0  0  0  0
    6.4898  -19.1307   -5.5189 C   0  0  0  0  0  0  0  0  0  0  0  0
    7.2241  -18.7684   -4.2669 C   0  0  0  0  0  0  0  0  0  0  0  0
    6.3772  -17.9501   -3.3416 C   0  0  0  0  0  0  0  0  0  0  0  0
    7.1645  -17.1182   -2.3798 C   0  0  0  0  0  0  0  0  0  0  0  0
    6.2252  -16.3559   -1.5178 C   0  0  0  0  0  0  0  0  0  0  0  0
    4.9879  -16.5779   -1.5627 O   0  0  0  0  0  0  0  0  0  0  0  0
    6.6783  -15.3774   -0.6381 O   0  0  0  0  0  0  0  0  0  0  0  0
  1  2  1  0
  2  3  1  0
  3  4  1  0
  4  5  1  0
  5  6  1  0
  6  7  1  0
  7  8  1  0
  8  9  1  0
  9 10  1  0
 10 11  1  0
 11 12  1  0
 12 13  1  0
 13 14  1  0
 14 15  1  0
 15 16  2  0
 15 17  1  0
M  END
$$$$
