
     RDKit          3D

 17 16  0  0  0  0  0  0  0  0999 V2000
    8.1739  -21.0628   -0.2541 C   0  0  0  0  0  0  0  0  0  0  0  0
    7.0051  -21.9142   -0.6321 C   0  0  0  0  0  0  0  0  0  0  0  0
    7.5402  -23.1512   -1.3792 C   0  0  0  0  0  0  0  0  0  0  0  0
    6.4339  -24.0787   -1.6909 C   0  0  0  0  0  0  0  0  0  0  0  0
    6.4549  -24.9141   -2.8871 C   0  0  0  0  0  0  0  0  0  0  0  0
    7.3159  -24.6496   -4.0513 C   0  0  0  0  0  0  0  0  0  0  0  0
    7.6292  -23.2387   -4.3220 C   0  0  0  0  0  0  0  0  0  0  0  0
    7.1917  -22.7867   -5.7168 C   0  0  0  0  0  0  0  0  0  0  0  0
    7.6566  -21.4203   -6.0789 C   0  0  0  0  0  0  0  0  0  0  0  0
    6.6089  -20.4300   -5.6285 C   0  0  0  0  0  0  0  0  0  0  0  0
    7.1705  -19.1374   -5.1615 C   0  0  0  0  0  0  0  0  0  0  0  0
    7.3003  -19.0255   -3.6754 C   0  0  0  0  0  0  0  0  0  0  0  0
    6.3615  -18.0048   -3.1097 C   0  0  0  0  0  0  0  0  0  0  0  0
    7.0186  -17.0235   -2.1918 C   0  0  0  0  0  0  0  0  0  0  0  0
    5.9785  -16.1440   -1.5991 C   0  0  0  0  0  0  0  0  0  0  0  0
    4.7588  -16.4346   -1.6983 O   0  0  0  0  0  0  0  0  0  0  0  0
    6.3154  -14.9775   -0.9192 O   0  0  0  0  0  0  0  0  0  0  0  0
  1  2  1  0
  2  3  1  0
  3  4  1  0
  4  5  1  0
  5  6  1  0
  6  7  1  0
  7  8  1  0
  8  9  1  0
  9 10  1  0
 10 11  1  0
 11 12  1  0
 12 13  1  0
 13 14  1  0
 14 15  1  0
 15 16  2  0
 15 17  1  0
M  END
$$$$
