
     RDKit          3D

 17 16  0  0  0  0  0  0  0  0999 V2000
    8.1790  -20.6543    0.4472 C   0  0  0  0  0  0  0  0  0  0  0  0
    7.8922  -22.0414   -0.0298 C   0  0  0  0  0  0  0  0  0  0  0  0
    6.5378  -22.0206   -0.7646 C   0  0  0  0  0  0  0  0  0  0  0  0
    6.2620  -23.3411   -1.3660 C   0  0  0  0  0  0  0  0  0  0  0  0
    7.1119  -23.8917   -2.4166 C   0  0  0  0  0  0  0  0  0  0  0  0
    6.5915  -24.5755   -3.6117 C   0  0  0  0  0  0  0  0  0  0  0  0
    6.4288  -23.7480   -4.8162 C   0  0  0  0  0  0  0  0  0  0  0  0
    7.2436  -22.4539   -4.7663 C   0  0  0  0  0  0  0  0  0  0  0  0
    7.2115  -21.6746   -6.0336 C   0  0  0  0  0  0  0  0  0  0  0  0
    8.1439  -20.4955   -5.8869 C   0  0  0  0  0  0  0  0  0  0  0  0
    7.4440  -19.1908   -5.7768 C   0  0  0  0  0  0  0  0  0  0  0  0
    6.3645  -19.1585   -4.7417 C   0  0  0  0  0  0  0  0  0  0  0  0
    6.5772  -18.0570   -3.7493 C   0  0  0  0  0  0  0  0  0  0  0  0
    5.4195  -17.8439   -2.8267 C   0  0  0  0  0  0  0  0  0  0  0  0
    5.7382  -16.7274   -1.9003 C   0  0  0  0  0  0  0  0  0  0  0  0
    6.8485  -16.1394   -1.9609 O   0  0  0  0  0  0  0  0  0  0  0  0
    4.8265  -16.2971   -0.9410 O   0  0  0  0  0  0  0  0  0  0  0  0
  1  2  1  0
  2  3  1  0
  3  4  1  0
  4  5  1  0
  5  6  1  0
  6  7  1  0
  7  8  1  0
  8  9  1  0
  9 10  1  0
 10 11  1  0
 11 12  1  0
 12 13  1  0
 13 14  1  0
 14 15  1  0
 15 16  2  0
 15 17  1  0
M  END
$$$$
