
     RDKit          3D

 17 16  0  0  0  0  0  0  0  0999 V2000
    6.2800  -20.8433    0.0784 C   0  0  0  0  0  0  0  0  0  0  0  0
    7.1950  -21.9309   -0.3837 C   0  0  0  0  0  0  0  0  0  0  0  0
    6.3798  -22.8935   -1.2691 C   0  0  0  0  0  0  0  0  0  0  0  0
    7.2373  -23.9953   -1.7509 C   0  0  0  0  0  0  0  0  0  0  0  0
    6.7709  -24.9355   -2.7647 C   0  0  0  0  0  0  0  0  0  0  0  0
    6.3895  -24.5393   -4.1301 C   0  0  0  0  0  0  0  0  0  0  0  0
    7.4936  -24.3107   -5.0739 C   0  0  0  0  0  0  0  0  0  0  0  0
    7.3129  -23.0408   -5.9081 C   0  0  0  0  0  0  0  0  0  0  0  0
    7.2874  -21.7907   -5.1014 C   0  0  0  0  0  0  0  0  0  0  0  0
    7.2739  -20.6160   -6.0507 C   0  0  0  0  0  0  0  0  0  0  0  0
    7.3230  -19.2974   -5.3699 C   0  0  0  0  0  0  0  0  0  0  0  0
    6.3780  -19.1658   -4.2177 C   0  0  0  0  0  0  0  0  0  0  0  0
    6.5893  -17.8869   -3.4674 C   0  0  0  0  0  0  0  0  0  0  0  0
    5.6385  -17.6904   -2.3297 C   0  0  0  0  0  0  0  0  0  0  0  0
    5.9875  -16.4336   -1.6191 C   0  0  0  0  0  0  0  0  0  0  0  0
    6.9742  -15.7431   -1.9821 O   0  0  0  0  0  0  0  0  0  0  0  0
    5.2406  -15.9806   -0.5358 O   0  0  0  0  0  0  0  0  0  0  0  0
  1  2  1  0
  2  3  1  0
  3  4  1  0
  4  5  1  0
  5  6  1  0
  6  7  1  0
  7  8  1  0
  8  9  1  0
  9 10  1  0
 10 11  1  0
 11 12  1  0
 12 13  1  0
 13 14  1  0
 14 15  1  0
 15 16  2  0
 15 17  1  0
M  END
$$$$
