
     RDKit          3D

 17 16  0  0  0  0  0  0  0  0999 V2000
    8.0180  -20.1837    0.6679 C   0  0  0  0  0  0  0  0  0  0  0  0
    7.8945  -21.5056   -0.0184 C   0  0  0  0  0  0  0  0  0  0  0  0
    6.3999  -21.7601   -0.2941 C   0  0  0  0  0  0  0  0  0  0  0  0
    6.2283  -22.9998   -1.0785 C   0  0  0  0  0  0  0  0  0  0  0  0
    7.2014  -23.4022   -2.0887 C   0  0  0  0  0  0  0  0  0  0  0  0
    6.9249  -24.3998   -3.1352 C   0  0  0  0  0  0  0  0  0  0  0  0
    6.5966  -23.8717   -4.4676 C   0  0  0  0  0  0  0  0  0  0  0  0
    7.2002  -22.4899   -4.7278 C   0  0  0  0  0  0  0  0  0  0  0  0
    7.3507  -22.1623   -6.1715 C   0  0  0  0  0  0  0  0  0  0  0  0
    7.5297  -20.6682   -6.3007 C   0  0  0  0  0  0  0  0  0  0  0  0
    7.5789  -19.9577   -4.9979 C   0  0  0  0  0  0  0  0  0  0  0  0
    6.4583  -18.9902   -4.7835 C   0  0  0  0  0  0  0  0  0  0  0  0
    6.6553  -18.1762   -3.5418 C   0  0  0  0  0  0  0  0  0  0  0  0
    5.3839  -17.6439   -2.9611 C   0  0  0  0  0  0  0  0  0  0  0  0
    5.7111  -16.7257   -1.8402 C   0  0  0  0  0  0  0  0  0  0  0  0
    6.8876  -16.3156   -1.6683 O   0  0  0  0  0  0  0  0  0  0  0  0
    4.7347  -16.2913   -0.9488 O   0  0  0  0  0  0  0  0  0  0  0  0
  1  2  1  0
  2  3  1  0
  3  4  1  0
  4  5  1  0
  5  6  1  0
  6  7  1  0
  7  8  1  0
  8  9  1  0
  9 10  1  0
 10 11  1  0
 11 12  1  0
 12 13  1  0
 13 14  1  0
 14 15  1  0
 15 16  2  0
 15 17  1  0
M  END
$$$$
