
     RDKit          3D

 17 16  0  0  0  0  0  0  0  0999 V2000
    7.7036  -20.0848    0.0218 C   0  0  0  0  0  0  0  0  0  0  0  0
    6.8331  -21.2462   -0.3345 C   0  0  0  0  0  0  0  0  0  0  0  0
    7.7075  -22.5152   -0.3272 C   0  0  0  0  0  0  0  0  0  0  0  0
    6.8835  -23.7057   -0.6193 C   0  0  0  0  0  0  0  0  0  0  0  0
    6.4013  -23.9855   -1.9679 C   0  0  0  0  0  0  0  0  0  0  0  0
    7.2016  -23.7612   -3.1827 C   0  0  0  0  0  0  0  0  0  0  0  0
    6.4659  -23.7600   -4.4558 C   0  0  0  0  0  0  0  0  0  0  0  0
    7.3265  -23.3217   -5.6426 C   0  0  0  0  0  0  0  0  0  0  0  0
    6.8796  -22.0491   -6.2711 C   0  0  0  0  0  0  0  0  0  0  0  0
    7.5331  -20.9037   -5.5349 C   0  0  0  0  0  0  0  0  0  0  0  0
    6.6495  -19.7230   -5.3625 C   0  0  0  0  0  0  0  0  0  0  0  0
    7.3042  -18.5594   -4.6877 C   0  0  0  0  0  0  0  0  0  0  0  0
    6.8379  -18.4013   -3.2733 C   0  0  0  0  0  0  0  0  0  0  0  0
    5.7177  -17.4233   -3.1128 C   0  0  0  0  0  0  0  0  0  0  0  0
    5.8621  -16.7326   -1.8057 C   0  0  0  0  0  0  0  0  0  0  0  0
    6.9872  -16.3314   -1.4119 O   0  0  0  0  0  0  0  0  0  0  0  0
    4.7658  -16.5074   -0.9785 O   0  0  0  0  0  0  0  0  0  0  0  0
  1  2  1  0
  2  3  1  0
  3  4  1  0
  4  5  1  0
  5  6  1  0
  6  7  1  0
  7  8  1  0
  8  9  1  0
  9 10  1  0
 10 11  1  0
 11 12  1  0
 12 13  1  0
 13 14  1  0
 14 15  1  0
 15 16  2  0
 15 17  1  0
M  END
$$$$
