
     RDKit          3D

 17 16  0  0  0  0  0  0  0  0999 V2000
    6.5404  -20.5750   -0.0152 C   0  0  0  0  0  0  0  0  0  0  0  0
    7.0225  -21.9870   -0.1017 C   0  0  0  0  0  0  0  0  0  0  0  0
    6.4560  -22.6041   -1.3952 C   0  0  0  0  0  0  0  0  0  0  0  0
    7.1558  -23.8664   -1.7087 C   0  0  0  0  0  0  0  0  0  0  0  0
    6.7991  -24.6648   -2.8770 C   0  0  0  0  0  0  0  0  0  0  0  0
    6.1385  -24.1127   -4.0709 C   0  0  0  0  0  0  0  0  0  0  0  0
    6.9735  -23.9792   -5.2738 C   0  0  0  0  0  0  0  0  0  0  0  0
    7.8888  -22.7538   -5.2326 C   0  0  0  0  0  0  0  0  0  0  0  0
    7.7901  -21.8895   -6.4399 C   0  0  0  0  0  0  0  0  0  0  0  0
    6.8356  -20.7594   -6.1351 C   0  0  0  0  0  0  0  0  0  0  0  0
    7.2147  -19.9632   -4.9405 C   0  0  0  0  0  0  0  0  0  0  0  0
    6.2901  -18.8257   -4.6421 C   0  0  0  0  0  0  0  0  0  0  0  0
    6.6915  -18.0932   -3.3989 C   0  0  0  0  0  0  0  0  0  0  0  0
    5.5489  -17.4420   -2.6866 C   0  0  0  0  0  0  0  0  0  0  0  0
    6.0852  -16.4783   -1.6916 C   0  0  0  0  0  0  0  0  0  0  0  0
    7.2903  -16.1200   -1.7291 O   0  0  0  0  0  0  0  0  0  0  0  0
    5.2789  -15.9429   -0.6916 O   0  0  0  0  0  0  0  0  0  0  0  0
  1  2  1  0
  2  3  1  0
  3  4  1  0
  4  5  1  0
  5  6  1  0
  6  7  1  0
  7  8  1  0
  8  9  1  0
  9 10  1  0
 10 11  1  0
 11 12  1  0
 12 13  1  0
 13 14  1  0
 14 15  1  0
 15 16  2  0
 15 17  1  0
M  END
$$$$
