
     RDKit          3D

 17 16  0  0  0  0  0  0  0  0999 V2000
    7.8692  -20.7094    0.1289 C   0  0  0  0  0  0  0  0  0  0  0  0
    6.7409  -21.5957   -0.2896 C   0  0  0  0  0  0  0  0  0  0  0  0
    7.3032  -22.6564   -1.2559 C   0  0  0  0  0  0  0  0  0  0  0  0
    6.2344  -23.5869   -1.6720 C   0  0  0  0  0  0  0  0  0  0  0  0
    6.5031  -24.6987   -2.5782 C   0  0  0  0  0  0  0  0  0  0  0  0
    7.2908  -24.5703   -3.8150 C   0  0  0  0  0  0  0  0  0  0  0  0
    6.5645  -24.0992   -5.0035 C   0  0  0  0  0  0  0  0  0  0  0  0
    6.4789  -22.5738   -5.0856 C   0  0  0  0  0  0  0  0  0  0  0  0
    7.5802  -21.9516   -5.8693 C   0  0  0  0  0  0  0  0  0  0  0  0
    7.1992  -20.5203   -6.1653 C   0  0  0  0  0  0  0  0  0  0  0  0
    7.4826  -19.5838   -5.0486 C   0  0  0  0  0  0  0  0  0  0  0  0
    6.2658  -19.1206   -4.3120 C   0  0  0  0  0  0  0  0  0  0  0  0
    6.5962  -18.0729   -3.2940 C   0  0  0  0  0  0  0  0  0  0  0  0
    5.4086  -17.5740   -2.5339 C   0  0  0  0  0  0  0  0  0  0  0  0
    5.8425  -16.4909   -1.6147 C   0  0  0  0  0  0  0  0  0  0  0  0
    7.0101  -16.0269   -1.6745 O   0  0  0  0  0  0  0  0  0  0  0  0
    4.9789  -15.9566   -0.6632 O   0  0  0  0  0  0  0  0  0  0  0  0
  1  2  1  0
  2  3  1  0
  3  4  1  0
  4  5  1  0
  5  6  1  0
  6  7  1  0
  7  8  1  0
  8  9  1  0
  9 10  1  0
 10 11  1  0
 11 12  1  0
 12 13  1  0
 13 14  1  0
 14 15  1  0
 15 16  2  0
 15 17  1  0
M  END
$$$$
