
     RDKit          3D

 17 16  0  0  0  0  0  0  0  0999 V2000
    6.8559  -20.0171   -0.1464 C   0  0  0  0  0  0  0  0  0  0  0  0
    7.3742  -21.2241   -0.8593 C   0  0  0  0  0  0  0  0  0  0  0  0
    6.6383  -22.4579   -0.3016 C   0  0  0  0  0  0  0  0  0  0  0  0
    7.2646  -23.6974   -0.8042 C   0  0  0  0  0  0  0  0  0  0  0  0
    7.0379  -24.1664   -2.1673 C   0  0  0  0  0  0  0  0  0  0  0  0
    6.8862  -23.2685   -3.3237 C   0  0  0  0  0  0  0  0  0  0  0  0
    6.7765  -23.9150   -4.6398 C   0  0  0  0  0  0  0  0  0  0  0  0
    6.5843  -22.9153   -5.7821 C   0  0  0  0  0  0  0  0  0  0  0  0
    7.6767  -21.9109   -5.8916 C   0  0  0  0  0  0  0  0  0  0  0  0
    7.0532  -20.5627   -6.1651 C   0  0  0  0  0  0  0  0  0  0  0  0
    7.3264  -19.5535   -5.1110 C   0  0  0  0  0  0  0  0  0  0  0  0
    6.1209  -19.1449   -4.3250 C   0  0  0  0  0  0  0  0  0  0  0  0
    6.4532  -18.1125   -3.2921 C   0  0  0  0  0  0  0  0  0  0  0  0
    5.2831  -17.6922   -2.4606 C   0  0  0  0  0  0  0  0  0  0  0  0
    5.7411  -16.7153   -1.4397 C   0  0  0  0  0  0  0  0  0  0  0  0
    6.9224  -16.2836   -1.4480 O   0  0  0  0  0  0  0  0  0  0  0  0
    4.8854  -16.2478   -0.4467 O   0  0  0  0  0  0  0  0  0  0  0  0
  1  2  1  0
  2  3  1  0
  3  4  1  0
  4  5  1  0
  5  6  1  0
  6  7  1  0
  7  8  1  0
  8  9  1  0
  9 10  1  0
 10 11  1  0
 11 12  1  0
 12 13  1  0
 13 14  1  0
 14 15  1  0
 15 16  2  0
 15 17  1  0
M  END
$$$$
