
     RDKit          3D

 17 16  0  0  0  0  0  0  0  0999 V2000
    7.4061  -20.7182    0.2934 C   0  0  0  0  0  0  0  0  0  0  0  0
    6.6880  -22.0049    0.0435 C   0  0  0  0  0  0  0  0  0  0  0  0
    7.2030  -22.5857   -1.2878 C   0  0  0  0  0  0  0  0  0  0  0  0
    7.0825  -24.0577   -1.2842 C   0  0  0  0  0  0  0  0  0  0  0  0
    7.4227  -24.8523   -2.4599 C   0  0  0  0  0  0  0  0  0  0  0  0
    6.6141  -24.8760   -3.6897 C   0  0  0  0  0  0  0  0  0  0  0  0
    7.2121  -24.2426   -4.8743 C   0  0  0  0  0  0  0  0  0  0  0  0
    6.8137  -22.7736   -5.0313 C   0  0  0  0  0  0  0  0  0  0  0  0
    7.4831  -22.0881   -6.1699 C   0  0  0  0  0  0  0  0  0  0  0  0
    7.0011  -20.6573   -6.2091 C   0  0  0  0  0  0  0  0  0  0  0  0
    7.2454  -19.9101   -4.9496 C   0  0  0  0  0  0  0  0  0  0  0  0
    6.3312  -18.7447   -4.7399 C   0  0  0  0  0  0  0  0  0  0  0  0
    6.7072  -17.9535   -3.5251 C   0  0  0  0  0  0  0  0  0  0  0  0
    5.5408  -17.5639   -2.6737 C   0  0  0  0  0  0  0  0  0  0  0  0
    5.9537  -16.4687   -1.7592 C   0  0  0  0  0  0  0  0  0  0  0  0
    7.0492  -15.8730   -1.9237 O   0  0  0  0  0  0  0  0  0  0  0  0
    5.1489  -16.0673   -0.6972 O   0  0  0  0  0  0  0  0  0  0  0  0
  1  2  1  0
  2  3  1  0
  3  4  1  0
  4  5  1  0
  5  6  1  0
  6  7  1  0
  7  8  1  0
  8  9  1  0
  9 10  1  0
 10 11  1  0
 11 12  1  0
 12 13  1  0
 13 14  1  0
 14 15  1  0
 15 16  2  0
 15 17  1  0
M  END
$$$$
