
     RDKit          3D

 17 16  0  0  0  0  0  0  0  0999 V2000
    7.8771  -21.1990    0.0238 C   0  0  0  0  0  0  0  0  0  0  0  0
    7.1156  -22.4842   -0.0222 C   0  0  0  0  0  0  0  0  0  0  0  0
    7.2424  -23.0609   -1.4456 C   0  0  0  0  0  0  0  0  0  0  0  0
    6.4440  -24.2973   -1.5694 C   0  0  0  0  0  0  0  0  0  0  0  0
    6.3579  -25.0247   -2.8315 C   0  0  0  0  0  0  0  0  0  0  0  0
    7.1119  -24.6531   -4.0397 C   0  0  0  0  0  0  0  0  0  0  0  0
    6.5438  -23.5682   -4.8536 C   0  0  0  0  0  0  0  0  0  0  0  0
    7.5976  -22.5702   -5.3380 C   0  0  0  0  0  0  0  0  0  0  0  0
    7.0987  -21.6248   -6.3731 C   0  0  0  0  0  0  0  0  0  0  0  0
    7.7096  -20.2690   -6.1084 C   0  0  0  0  0  0  0  0  0  0  0  0
    7.4160  -19.7358   -4.7542 C   0  0  0  0  0  0  0  0  0  0  0  0
    6.8333  -18.3580   -4.7498 C   0  0  0  0  0  0  0  0  0  0  0  0
    6.7020  -17.8133   -3.3609 C   0  0  0  0  0  0  0  0  0  0  0  0
    5.3084  -17.4060   -3.0016 C   0  0  0  0  0  0  0  0  0  0  0  0
    5.3657  -16.3783   -1.9305 C   0  0  0  0  0  0  0  0  0  0  0  0
    6.4684  -15.9087   -1.5491 O   0  0  0  0  0  0  0  0  0  0  0  0
    4.2101  -15.9037   -1.3172 O   0  0  0  0  0  0  0  0  0  0  0  0
  1  2  1  0
  2  3  1  0
  3  4  1  0
  4  5  1  0
  5  6  1  0
  6  7  1  0
  7  8  1  0
  8  9  1  0
  9 10  1  0
 10 11  1  0
 11 12  1  0
 12 13  1  0
 13 14  1  0
 14 15  1  0
 15 16  2  0
 15 17  1  0
M  END
$$$$
