
     RDKit          3D

 17 16  0  0  0  0  0  0  0  0999 V2000
    7.4913  -20.1773    0.6705 C   0  0  0  0  0  0  0  0  0  0  0  0
    7.4114  -21.2092   -0.4077 C   0  0  0  0  0  0  0  0  0  0  0  0
    7.0008  -22.5447    0.2424 C   0  0  0  0  0  0  0  0  0  0  0  0
    6.9395  -23.6120   -0.7767 C   0  0  0  0  0  0  0  0  0  0  0  0
    6.7946  -23.3026   -2.1954 C   0  0  0  0  0  0  0  0  0  0  0  0
    6.9964  -24.2884   -3.2696 C   0  0  0  0  0  0  0  0  0  0  0  0
    6.7277  -23.8238   -4.6385 C   0  0  0  0  0  0  0  0  0  0  0  0
    7.3598  -22.4640   -4.9426 C   0  0  0  0  0  0  0  0  0  0  0  0
    6.9148  -21.8696   -6.2322 C   0  0  0  0  0  0  0  0  0  0  0  0
    7.5892  -20.5276   -6.3915 C   0  0  0  0  0  0  0  0  0  0  0  0
    7.7257  -19.7732   -5.1200 C   0  0  0  0  0  0  0  0  0  0  0  0
    6.5050  -19.0014   -4.7298 C   0  0  0  0  0  0  0  0  0  0  0  0
    6.7315  -18.1894   -3.4919 C   0  0  0  0  0  0  0  0  0  0  0  0
    5.4863  -17.5731   -2.9381 C   0  0  0  0  0  0  0  0  0  0  0  0
    5.8510  -16.6704   -1.8162 C   0  0  0  0  0  0  0  0  0  0  0  0
    7.0223  -16.2259   -1.7040 O   0  0  0  0  0  0  0  0  0  0  0  0
    4.9164  -16.2886   -0.8583 O   0  0  0  0  0  0  0  0  0  0  0  0
  1  2  1  0
  2  3  1  0
  3  4  1  0
  4  5  1  0
  5  6  1  0
  6  7  1  0
  7  8  1  0
  8  9  1  0
  9 10  1  0
 10 11  1  0
 11 12  1  0
 12 13  1  0
 13 14  1  0
 14 15  1  0
 15 16  2  0
 15 17  1  0
M  END
$$$$
