7WPW_F15
     RDKit          3D

 17 16  0  0  0  0  0  0  0  0999 V2000
    9.0826  -19.1025   -0.9759 C   0  0  0  0  0  0  0  0  0  0  0  0
    7.7117  -19.7439   -0.7736 C   0  0  0  0  0  0  0  0  0  0  0  0
    7.8302  -21.2379   -0.4583 C   0  0  0  0  0  0  0  0  0  0  0  0
    6.5746  -22.0151   -0.8864 C   0  0  0  0  0  0  0  0  0  0  0  0
    6.7447  -22.7774   -2.2218 C   0  0  0  0  0  0  0  0  0  0  0  0
    6.9765  -21.8932   -3.4648 C   0  0  0  0  0  0  0  0  0  0  0  0
    7.3372  -22.7675   -4.6887 C   0  0  0  0  0  0  0  0  0  0  0  0
    7.9963  -22.0039   -5.8590 C   0  0  0  0  0  0  0  0  0  0  0  0
    7.1111  -20.9103   -6.4615 C   0  0  0  0  0  0  0  0  0  0  0  0
    7.8532  -19.5784   -6.6964 C   0  0  0  0  0  0  0  0  0  0  0  0
    8.0862  -18.7553   -5.4172 C   0  0  0  0  0  0  0  0  0  0  0  0
    6.7665  -18.2446   -4.8226 C   0  0  0  0  0  0  0  0  0  0  0  0
    6.9933  -17.3663   -3.5892 C   0  0  0  0  0  0  0  0  0  0  0  0
    5.7203  -17.3476   -2.7254 C   0  0  0  0  0  0  0  0  0  0  0  0
    5.8999  -16.6477   -1.3849 C   0  0  0  0  0  0  0  0  0  0  0  0
    6.5146  -15.5971   -1.3217 O   0  0  0  0  0  0  0  0  0  0  0  0
    5.2908  -17.2054   -0.3109 O   0  0  0  0  0  0  0  0  0  0  0  0
  1  2  1  0
  2  3  1  0
  3  4  1  0
  4  5  1  0
  5  6  1  0
  6  7  1  0
  7  8  1  0
  8  9  1  0
  9 10  1  0
 10 11  1  0
 11 12  1  0
 12 13  1  0
 13 14  1  0
 14 15  1  0
 15 16  2  0
 15 17  1  0
M  END
