
     RDKit          3D

 17 16  0  0  0  0  0  0  0  0999 V2000
    8.6137  -20.2186   -0.3878 C   0  0  0  0  0  0  0  0  0  0  0  0
    8.2114  -21.6573   -0.3430 C   0  0  0  0  0  0  0  0  0  0  0  0
    6.8066  -21.7774   -0.9650 C   0  0  0  0  0  0  0  0  0  0  0  0
    6.3783  -23.1906   -0.9919 C   0  0  0  0  0  0  0  0  0  0  0  0
    6.9906  -24.1545   -1.9004 C   0  0  0  0  0  0  0  0  0  0  0  0
    6.3774  -24.5835   -3.1679 C   0  0  0  0  0  0  0  0  0  0  0  0
    7.0631  -24.1619   -4.3984 C   0  0  0  0  0  0  0  0  0  0  0  0
    6.7853  -22.7032   -4.7672 C   0  0  0  0  0  0  0  0  0  0  0  0
    7.5899  -22.2108   -5.9180 C   0  0  0  0  0  0  0  0  0  0  0  0
    7.2349  -20.7624   -6.1573 C   0  0  0  0  0  0  0  0  0  0  0  0
    7.4876  -19.8843   -4.9870 C   0  0  0  0  0  0  0  0  0  0  0  0
    6.4688  -18.8055   -4.7975 C   0  0  0  0  0  0  0  0  0  0  0  0
    6.7134  -18.0224   -3.5445 C   0  0  0  0  0  0  0  0  0  0  0  0
    5.4646  -17.6624   -2.8042 C   0  0  0  0  0  0  0  0  0  0  0  0
    5.8041  -16.7072   -1.7185 C   0  0  0  0  0  0  0  0  0  0  0  0
    6.9690  -16.2454   -1.6101 O   0  0  0  0  0  0  0  0  0  0  0  0
    4.8523  -16.2938   -0.7912 O   0  0  0  0  0  0  0  0  0  0  0  0
  1  2  1  0
  2  3  1  0
  3  4  1  0
  4  5  1  0
  5  6  1  0
  6  7  1  0
  7  8  1  0
  8  9  1  0
  9 10  1  0
 10 11  1  0
 11 12  1  0
 12 13  1  0
 13 14  1  0
 14 15  1  0
 15 16  2  0
 15 17  1  0
M  END
$$$$
