
     RDKit          3D

 17 16  0  0  0  0  0  0  0  0999 V2000
    6.5332  -20.7370   -0.0513 C   0  0  0  0  0  0  0  0  0  0  0  0
    6.9846  -22.1602   -0.1174 C   0  0  0  0  0  0  0  0  0  0  0  0
    6.6644  -22.6952   -1.5267 C   0  0  0  0  0  0  0  0  0  0  0  0
    7.1467  -24.0840   -1.6683 C   0  0  0  0  0  0  0  0  0  0  0  0
    6.9559  -24.8338   -2.9055 C   0  0  0  0  0  0  0  0  0  0  0  0
    6.6292  -24.2069   -4.1966 C   0  0  0  0  0  0  0  0  0  0  0  0
    7.7692  -23.7558   -5.0083 C   0  0  0  0  0  0  0  0  0  0  0  0
    7.3457  -22.9426   -6.2332 C   0  0  0  0  0  0  0  0  0  0  0  0
    6.8364  -21.5835   -5.9052 C   0  0  0  0  0  0  0  0  0  0  0  0
    7.9932  -20.6152   -5.9781 C   0  0  0  0  0  0  0  0  0  0  0  0
    7.6348  -19.2266   -5.5936 C   0  0  0  0  0  0  0  0  0  0  0  0
    6.5482  -19.1341   -4.5696 C   0  0  0  0  0  0  0  0  0  0  0  0
    6.7829  -18.0097   -3.6085 C   0  0  0  0  0  0  0  0  0  0  0  0
    5.7681  -17.9306   -2.5126 C   0  0  0  0  0  0  0  0  0  0  0  0
    6.0167  -16.7053   -1.7106 C   0  0  0  0  0  0  0  0  0  0  0  0
    6.9623  -15.9283   -2.0008 O   0  0  0  0  0  0  0  0  0  0  0  0
    5.2181  -16.3775   -0.6190 O   0  0  0  0  0  0  0  0  0  0  0  0
  1  2  1  0
  2  3  1  0
  3  4  1  0
  4  5  1  0
  5  6  1  0
  6  7  1  0
  7  8  1  0
  8  9  1  0
  9 10  1  0
 10 11  1  0
 11 12  1  0
 12 13  1  0
 13 14  1  0
 14 15  1  0
 15 16  2  0
 15 17  1  0
M  END
$$$$
