
     RDKit          3D

 17 16  0  0  0  0  0  0  0  0999 V2000
    7.4027  -20.0586   -0.3295 C   0  0  0  0  0  0  0  0  0  0  0  0
    6.3922  -20.9406   -0.9888 C   0  0  0  0  0  0  0  0  0  0  0  0
    7.1216  -22.1969   -1.5031 C   0  0  0  0  0  0  0  0  0  0  0  0
    6.1545  -23.1435   -2.0947 C   0  0  0  0  0  0  0  0  0  0  0  0
    6.5958  -24.3531   -2.7815 C   0  0  0  0  0  0  0  0  0  0  0  0
    7.4009  -24.3432   -4.0137 C   0  0  0  0  0  0  0  0  0  0  0  0
    7.0375  -23.3354   -5.0207 C   0  0  0  0  0  0  0  0  0  0  0  0
    8.2496  -22.5942   -5.5886 C   0  0  0  0  0  0  0  0  0  0  0  0
    7.9016  -21.5599   -6.6001 C   0  0  0  0  0  0  0  0  0  0  0  0
    6.7833  -20.7114   -6.0428 C   0  0  0  0  0  0  0  0  0  0  0  0
    7.1919  -19.8646   -4.8937 C   0  0  0  0  0  0  0  0  0  0  0  0
    6.0964  -19.0082   -4.3420 C   0  0  0  0  0  0  0  0  0  0  0  0
    6.5445  -18.2376   -3.1385 C   0  0  0  0  0  0  0  0  0  0  0  0
    5.4543  -17.9775   -2.1481 C   0  0  0  0  0  0  0  0  0  0  0  0
    5.9133  -16.9454   -1.1833 C   0  0  0  0  0  0  0  0  0  0  0  0
    7.0236  -16.3739   -1.3338 O   0  0  0  0  0  0  0  0  0  0  0  0
    5.1365  -16.5785   -0.0885 O   0  0  0  0  0  0  0  0  0  0  0  0
  1  2  1  0
  2  3  1  0
  3  4  1  0
  4  5  1  0
  5  6  1  0
  6  7  1  0
  7  8  1  0
  8  9  1  0
  9 10  1  0
 10 11  1  0
 11 12  1  0
 12 13  1  0
 13 14  1  0
 14 15  1  0
 15 16  2  0
 15 17  1  0
M  END
$$$$
