
     RDKit          3D

 17 16  0  0  0  0  0  0  0  0999 V2000
    7.0465  -19.9540    0.5907 C   0  0  0  0  0  0  0  0  0  0  0  0
    6.4796  -20.9310   -0.3880 C   0  0  0  0  0  0  0  0  0  0  0  0
    7.5241  -22.0421   -0.6093 C   0  0  0  0  0  0  0  0  0  0  0  0
    6.8696  -23.2661   -1.1142 C   0  0  0  0  0  0  0  0  0  0  0  0
    6.5448  -23.4280   -2.5276 C   0  0  0  0  0  0  0  0  0  0  0  0
    7.2084  -24.4012   -3.4103 C   0  0  0  0  0  0  0  0  0  0  0  0
    7.4961  -23.9480   -4.7792 C   0  0  0  0  0  0  0  0  0  0  0  0
    6.9319  -22.5577   -5.0791 C   0  0  0  0  0  0  0  0  0  0  0  0
    7.3944  -21.9882   -6.3737 C   0  0  0  0  0  0  0  0  0  0  0  0
    6.8514  -20.5838   -6.4929 C   0  0  0  0  0  0  0  0  0  0  0  0
    7.2816  -19.6821   -5.3946 C   0  0  0  0  0  0  0  0  0  0  0  0
    6.1571  -19.1341   -4.5741 C   0  0  0  0  0  0  0  0  0  0  0  0
    6.6456  -18.1871   -3.5216 C   0  0  0  0  0  0  0  0  0  0  0  0
    5.6186  -17.8528   -2.4869 C   0  0  0  0  0  0  0  0  0  0  0  0
    6.1252  -16.7390   -1.6446 C   0  0  0  0  0  0  0  0  0  0  0  0
    7.2131  -16.1701   -1.9183 O   0  0  0  0  0  0  0  0  0  0  0  0
    5.4191  -16.2905   -0.5325 O   0  0  0  0  0  0  0  0  0  0  0  0
  1  2  1  0
  2  3  1  0
  3  4  1  0
  4  5  1  0
  5  6  1  0
  6  7  1  0
  7  8  1  0
  8  9  1  0
  9 10  1  0
 10 11  1  0
 11 12  1  0
 12 13  1  0
 13 14  1  0
 14 15  1  0
 15 16  2  0
 15 17  1  0
M  END
$$$$
