
     RDKit          3D

 17 16  0  0  0  0  0  0  0  0999 V2000
    7.0740  -21.0646    0.1314 C   0  0  0  0  0  0  0  0  0  0  0  0
    7.2158  -22.5465   -0.0020 C   0  0  0  0  0  0  0  0  0  0  0  0
    6.7586  -22.9417   -1.4196 C   0  0  0  0  0  0  0  0  0  0  0  0
    6.9014  -24.3987   -1.6154 C   0  0  0  0  0  0  0  0  0  0  0  0
    6.6090  -25.0265   -2.8998 C   0  0  0  0  0  0  0  0  0  0  0  0
    7.0922  -24.5076   -4.1897 C   0  0  0  0  0  0  0  0  0  0  0  0
    6.7254  -23.1207   -4.5120 C   0  0  0  0  0  0  0  0  0  0  0  0
    7.3213  -22.6375   -5.8358 C   0  0  0  0  0  0  0  0  0  0  0  0
    6.8927  -21.2660   -6.2225 C   0  0  0  0  0  0  0  0  0  0  0  0
    8.0633  -20.3321   -6.0255 C   0  0  0  0  0  0  0  0  0  0  0  0
    7.6799  -18.9953   -5.5057 C   0  0  0  0  0  0  0  0  0  0  0  0
    6.6322  -19.0289   -4.4384 C   0  0  0  0  0  0  0  0  0  0  0  0
    6.7282  -17.8448   -3.5263 C   0  0  0  0  0  0  0  0  0  0  0  0
    5.6358  -17.7781   -2.5068 C   0  0  0  0  0  0  0  0  0  0  0  0
    5.8025  -16.5426   -1.6992 C   0  0  0  0  0  0  0  0  0  0  0  0
    6.7358  -15.7358   -1.9445 O   0  0  0  0  0  0  0  0  0  0  0  0
    4.9385  -16.2378   -0.6517 O   0  0  0  0  0  0  0  0  0  0  0  0
  1  2  1  0
  2  3  1  0
  3  4  1  0
  4  5  1  0
  5  6  1  0
  6  7  1  0
  7  8  1  0
  8  9  1  0
  9 10  1  0
 10 11  1  0
 11 12  1  0
 12 13  1  0
 13 14  1  0
 14 15  1  0
 15 16  2  0
 15 17  1  0
M  END
$$$$
