
     RDKit          3D

 17 16  0  0  0  0  0  0  0  0999 V2000
    9.5343  -20.7576    0.4872 C   0  0  0  0  0  0  0  0  0  0  0  0
    8.2532  -20.8364   -0.2786 C   0  0  0  0  0  0  0  0  0  0  0  0
    7.7915  -22.3067   -0.2821 C   0  0  0  0  0  0  0  0  0  0  0  0
    6.5357  -22.4466   -1.0469 C   0  0  0  0  0  0  0  0  0  0  0  0
    6.3275  -23.5554   -1.9724 C   0  0  0  0  0  0  0  0  0  0  0  0
    7.3242  -23.9857   -2.9665 C   0  0  0  0  0  0  0  0  0  0  0  0
    6.8351  -24.1704   -4.3408 C   0  0  0  0  0  0  0  0  0  0  0  0
    6.5862  -22.8479   -5.0690 C   0  0  0  0  0  0  0  0  0  0  0  0
    7.8315  -22.1246   -5.4434 C   0  0  0  0  0  0  0  0  0  0  0  0
    7.4419  -20.8409   -6.1372 C   0  0  0  0  0  0  0  0  0  0  0  0
    7.5879  -19.6336   -5.2855 C   0  0  0  0  0  0  0  0  0  0  0  0
    6.4826  -19.4433   -4.2954 C   0  0  0  0  0  0  0  0  0  0  0  0
    6.6426  -18.1723   -3.5195 C   0  0  0  0  0  0  0  0  0  0  0  0
    5.5664  -17.9442   -2.5062 C   0  0  0  0  0  0  0  0  0  0  0  0
    5.8043  -16.6419   -1.8326 C   0  0  0  0  0  0  0  0  0  0  0  0
    6.7480  -15.8938   -2.1956 O   0  0  0  0  0  0  0  0  0  0  0  0
    4.9976  -16.2083   -0.7848 O   0  0  0  0  0  0  0  0  0  0  0  0
  1  2  1  0
  2  3  1  0
  3  4  1  0
  4  5  1  0
  5  6  1  0
  6  7  1  0
  7  8  1  0
  8  9  1  0
  9 10  1  0
 10 11  1  0
 11 12  1  0
 12 13  1  0
 13 14  1  0
 14 15  1  0
 15 16  2  0
 15 17  1  0
M  END
$$$$
