
     RDKit          3D

 17 16  0  0  0  0  0  0  0  0999 V2000
    7.4913  -20.0704    0.7062 C   0  0  0  0  0  0  0  0  0  0  0  0
    6.9626  -20.7739   -0.5017 C   0  0  0  0  0  0  0  0  0  0  0  0
    7.1482  -22.2888   -0.2886 C   0  0  0  0  0  0  0  0  0  0  0  0
    6.6036  -23.0376   -1.4393 C   0  0  0  0  0  0  0  0  0  0  0  0
    7.4730  -23.7878   -2.3397 C   0  0  0  0  0  0  0  0  0  0  0  0
    6.9747  -24.6541   -3.4203 C   0  0  0  0  0  0  0  0  0  0  0  0
    6.7426  -24.0061   -4.7197 C   0  0  0  0  0  0  0  0  0  0  0  0
    7.4859  -22.6766   -4.8652 C   0  0  0  0  0  0  0  0  0  0  0  0
    7.3137  -22.0347   -6.1966 C   0  0  0  0  0  0  0  0  0  0  0  0
    7.8350  -20.6199   -6.1099 C   0  0  0  0  0  0  0  0  0  0  0  0
    7.6962  -20.0138   -4.7617 C   0  0  0  0  0  0  0  0  0  0  0  0
    6.6222  -18.9772   -4.6621 C   0  0  0  0  0  0  0  0  0  0  0  0
    6.7717  -18.1368   -3.4315 C   0  0  0  0  0  0  0  0  0  0  0  0
    5.5012  -17.4834   -2.9888 C   0  0  0  0  0  0  0  0  0  0  0  0
    5.7937  -16.5822   -1.8447 C   0  0  0  0  0  0  0  0  0  0  0  0
    6.9541  -16.1330   -1.6612 O   0  0  0  0  0  0  0  0  0  0  0  0
    4.8016  -16.2071   -0.9438 O   0  0  0  0  0  0  0  0  0  0  0  0
  1  2  1  0
  2  3  1  0
  3  4  1  0
  4  5  1  0
  5  6  1  0
  6  7  1  0
  7  8  1  0
  8  9  1  0
  9 10  1  0
 10 11  1  0
 11 12  1  0
 12 13  1  0
 13 14  1  0
 14 15  1  0
 15 16  2  0
 15 17  1  0
M  END
$$$$
