
     RDKit          3D

 17 16  0  0  0  0  0  0  0  0999 V2000
    6.3476  -20.8892    0.1059 C   0  0  0  0  0  0  0  0  0  0  0  0
    7.1720  -22.0679   -0.2998 C   0  0  0  0  0  0  0  0  0  0  0  0
    6.4168  -22.8141   -1.4168 C   0  0  0  0  0  0  0  0  0  0  0  0
    7.1939  -23.9880   -1.8635 C   0  0  0  0  0  0  0  0  0  0  0  0
    6.7042  -24.8683   -2.9193 C   0  0  0  0  0  0  0  0  0  0  0  0
    6.8474  -24.5773   -4.3551 C   0  0  0  0  0  0  0  0  0  0  0  0
    7.1936  -23.1922   -4.7072 C   0  0  0  0  0  0  0  0  0  0  0  0
    7.2859  -22.9652   -6.2175 C   0  0  0  0  0  0  0  0  0  0  0  0
    7.7787  -21.6121   -6.5925 C   0  0  0  0  0  0  0  0  0  0  0  0
    6.6974  -20.6088   -6.2680 C   0  0  0  0  0  0  0  0  0  0  0  0
    6.7968  -20.0459   -4.8978 C   0  0  0  0  0  0  0  0  0  0  0  0
    6.6457  -18.5590   -4.8324 C   0  0  0  0  0  0  0  0  0  0  0  0
    6.8809  -18.0356   -3.4489 C   0  0  0  0  0  0  0  0  0  0  0  0
    5.6807  -17.3853   -2.8376 C   0  0  0  0  0  0  0  0  0  0  0  0
    6.1293  -16.4080   -1.8129 C   0  0  0  0  0  0  0  0  0  0  0  0
    7.2150  -15.7875   -1.9487 O   0  0  0  0  0  0  0  0  0  0  0  0
    5.3697  -16.1474   -0.6763 O   0  0  0  0  0  0  0  0  0  0  0  0
  1  2  1  0
  2  3  1  0
  3  4  1  0
  4  5  1  0
  5  6  1  0
  6  7  1  0
  7  8  1  0
  8  9  1  0
  9 10  1  0
 10 11  1  0
 11 12  1  0
 12 13  1  0
 13 14  1  0
 14 15  1  0
 15 16  2  0
 15 17  1  0
M  END
$$$$
