
     RDKit          3D

 17 16  0  0  0  0  0  0  0  0999 V2000
    7.6790  -19.8361   -0.1717 C   0  0  0  0  0  0  0  0  0  0  0  0
    6.8061  -20.9000   -0.7546 C   0  0  0  0  0  0  0  0  0  0  0  0
    7.4333  -22.2667   -0.4176 C   0  0  0  0  0  0  0  0  0  0  0  0
    6.5854  -23.3600   -0.9345 C   0  0  0  0  0  0  0  0  0  0  0  0
    6.3179  -23.5063   -2.3615 C   0  0  0  0  0  0  0  0  0  0  0  0
    7.1355  -24.3335   -3.2637 C   0  0  0  0  0  0  0  0  0  0  0  0
    6.8245  -24.2356   -4.6975 C   0  0  0  0  0  0  0  0  0  0  0  0
    7.5207  -23.0567   -5.3806 C   0  0  0  0  0  0  0  0  0  0  0  0
    6.6087  -21.9269   -5.7060 C   0  0  0  0  0  0  0  0  0  0  0  0
    7.4467  -20.7682   -6.1922 C   0  0  0  0  0  0  0  0  0  0  0  0
    7.6694  -19.7198   -5.1647 C   0  0  0  0  0  0  0  0  0  0  0  0
    6.4182  -19.2265   -4.5097 C   0  0  0  0  0  0  0  0  0  0  0  0
    6.7105  -18.2325   -3.4282 C   0  0  0  0  0  0  0  0  0  0  0  0
    5.4892  -17.7203   -2.7331 C   0  0  0  0  0  0  0  0  0  0  0  0
    5.9040  -16.8194   -1.6271 C   0  0  0  0  0  0  0  0  0  0  0  0
    7.0767  -16.3681   -1.5717 O   0  0  0  0  0  0  0  0  0  0  0  0
    5.0161  -16.4470   -0.6223 O   0  0  0  0  0  0  0  0  0  0  0  0
  1  2  1  0
  2  3  1  0
  3  4  1  0
  4  5  1  0
  5  6  1  0
  6  7  1  0
  7  8  1  0
  8  9  1  0
  9 10  1  0
 10 11  1  0
 11 12  1  0
 12 13  1  0
 13 14  1  0
 14 15  1  0
 15 16  2  0
 15 17  1  0
M  END
$$$$
