
     RDKit          3D

 17 16  0  0  0  0  0  0  0  0999 V2000
    7.6254  -20.7289    0.5067 C   0  0  0  0  0  0  0  0  0  0  0  0
    6.8173  -21.7196   -0.2674 C   0  0  0  0  0  0  0  0  0  0  0  0
    7.6149  -23.0365   -0.3319 C   0  0  0  0  0  0  0  0  0  0  0  0
    6.7870  -24.1074   -0.9228 C   0  0  0  0  0  0  0  0  0  0  0  0
    6.7778  -24.3570   -2.3606 C   0  0  0  0  0  0  0  0  0  0  0  0
    7.2197  -23.3725   -3.3617 C   0  0  0  0  0  0  0  0  0  0  0  0
    7.2208  -23.8231   -4.7614 C   0  0  0  0  0  0  0  0  0  0  0  0
    7.7637  -22.7685   -5.7279 C   0  0  0  0  0  0  0  0  0  0  0  0
    6.8250  -21.6408   -5.9757 C   0  0  0  0  0  0  0  0  0  0  0  0
    7.6399  -20.3920   -6.2161 C   0  0  0  0  0  0  0  0  0  0  0  0
    7.7479  -19.5111   -5.0258 C   0  0  0  0  0  0  0  0  0  0  0  0
    6.4623  -18.8592   -4.6257 C   0  0  0  0  0  0  0  0  0  0  0  0
    6.6515  -17.9093   -3.4833 C   0  0  0  0  0  0  0  0  0  0  0  0
    5.3804  -17.2885   -2.9977 C   0  0  0  0  0  0  0  0  0  0  0  0
    5.7031  -16.2668   -1.9688 C   0  0  0  0  0  0  0  0  0  0  0  0
    6.8765  -15.8321   -1.8411 O   0  0  0  0  0  0  0  0  0  0  0  0
    4.7259  -15.7597   -1.1176 O   0  0  0  0  0  0  0  0  0  0  0  0
  1  2  1  0
  2  3  1  0
  3  4  1  0
  4  5  1  0
  5  6  1  0
  6  7  1  0
  7  8  1  0
  8  9  1  0
  9 10  1  0
 10 11  1  0
 11 12  1  0
 12 13  1  0
 13 14  1  0
 14 15  1  0
 15 16  2  0
 15 17  1  0
M  END
$$$$
