
     RDKit          3D

 17 16  0  0  0  0  0  0  0  0999 V2000
    6.5624  -20.8353   -0.1629 C   0  0  0  0  0  0  0  0  0  0  0  0
    7.3668  -21.7818   -0.9940 C   0  0  0  0  0  0  0  0  0  0  0  0
    6.5552  -23.0821   -1.1531 C   0  0  0  0  0  0  0  0  0  0  0  0
    7.3417  -24.0884   -1.8948 C   0  0  0  0  0  0  0  0  0  0  0  0
    6.7043  -25.0296   -2.8098 C   0  0  0  0  0  0  0  0  0  0  0  0
    6.5624  -24.7920   -4.2555 C   0  0  0  0  0  0  0  0  0  0  0  0
    7.5403  -23.8779   -4.8640 C   0  0  0  0  0  0  0  0  0  0  0  0
    6.9107  -22.5758   -5.3632 C   0  0  0  0  0  0  0  0  0  0  0  0
    7.9004  -21.5811   -5.8584 C   0  0  0  0  0  0  0  0  0  0  0  0
    7.1489  -20.3512   -6.3097 C   0  0  0  0  0  0  0  0  0  0  0  0
    6.3728  -19.6950   -5.2273 C   0  0  0  0  0  0  0  0  0  0  0  0
    7.1680  -18.7412   -4.3931 C   0  0  0  0  0  0  0  0  0  0  0  0
    6.3273  -18.0882   -3.3396 C   0  0  0  0  0  0  0  0  0  0  0  0
    7.0632  -17.0739   -2.5230 C   0  0  0  0  0  0  0  0  0  0  0  0
    6.1302  -16.4837   -1.5292 C   0  0  0  0  0  0  0  0  0  0  0  0
    5.0124  -17.0143   -1.3032 O   0  0  0  0  0  0  0  0  0  0  0  0
    6.4583  -15.3323   -0.8197 O   0  0  0  0  0  0  0  0  0  0  0  0
  1  2  1  0
  2  3  1  0
  3  4  1  0
  4  5  1  0
  5  6  1  0
  6  7  1  0
  7  8  1  0
  8  9  1  0
  9 10  1  0
 10 11  1  0
 11 12  1  0
 12 13  1  0
 13 14  1  0
 14 15  1  0
 15 16  2  0
 15 17  1  0
M  END
$$$$
