
     RDKit          3D

 17 16  0  0  0  0  0  0  0  0999 V2000
    8.1824  -19.6855    0.5933 C   0  0  0  0  0  0  0  0  0  0  0  0
    7.8060  -20.9758   -0.0603 C   0  0  0  0  0  0  0  0  0  0  0  0
    6.4522  -21.4262    0.5221 C   0  0  0  0  0  0  0  0  0  0  0  0
    6.0168  -22.6871   -0.1120 C   0  0  0  0  0  0  0  0  0  0  0  0
    6.7332  -23.2541   -1.2498 C   0  0  0  0  0  0  0  0  0  0  0  0
    6.2733  -23.1371   -2.6432 C   0  0  0  0  0  0  0  0  0  0  0  0
    7.2213  -23.5707   -3.6802 C   0  0  0  0  0  0  0  0  0  0  0  0
    6.6133  -23.5676   -5.0842 C   0  0  0  0  0  0  0  0  0  0  0  0
    6.8367  -22.3012   -5.8329 C   0  0  0  0  0  0  0  0  0  0  0  0
    7.4578  -21.2982   -4.8898 C   0  0  0  0  0  0  0  0  0  0  0  0
    7.4387  -19.9050   -5.4025 C   0  0  0  0  0  0  0  0  0  0  0  0
    6.2608  -19.1007   -4.9511 C   0  0  0  0  0  0  0  0  0  0  0  0
    6.6152  -18.1768   -3.8269 C   0  0  0  0  0  0  0  0  0  0  0  0
    5.4285  -17.6086   -3.1157 C   0  0  0  0  0  0  0  0  0  0  0  0
    5.8841  -16.5351   -2.1956 C   0  0  0  0  0  0  0  0  0  0  0  0
    7.0727  -16.1248   -2.2258 O   0  0  0  0  0  0  0  0  0  0  0  0
    5.0182  -15.9511   -1.2759 O   0  0  0  0  0  0  0  0  0  0  0  0
  1  2  1  0
  2  3  1  0
  3  4  1  0
  4  5  1  0
  5  6  1  0
  6  7  1  0
  7  8  1  0
  8  9  1  0
  9 10  1  0
 10 11  1  0
 11 12  1  0
 12 13  1  0
 13 14  1  0
 14 15  1  0
 15 16  2  0
 15 17  1  0
M  END
$$$$
