
     RDKit          3D

 26 30  0  0  0  0  0  0  0  0999 V2000
   14.3432   -6.8910    6.2146 O   0  0  0  0  0  0  0  0  0  0  0  0
   15.3479   -6.7170    6.9205 C   0  0  0  0  0  0  0  0  0  0  0  0
   15.8321   -7.6397    7.8195 C   0  0  0  0  0  0  0  0  0  0  0  0
   16.9638   -7.2643    8.5152 C   0  0  0  0  0  0  0  0  0  0  0  0
   17.5041   -8.2044    9.4695 N   0  0  0  0  0  0  0  0  0  0  0  0
   16.7006   -9.3452    9.8275 C   0  0  0  0  0  0  0  0  0  0  0  0
   17.6813  -10.4705   10.1652 C   0  0  0  0  0  0  0  0  0  0  0  0
   18.4136  -10.0112   11.2533 O   0  0  0  0  0  0  0  0  0  0  0  0
   19.3163   -9.0283   10.8964 C   0  0  0  0  0  0  0  0  0  0  0  0
   18.7880   -7.9762   10.0096 C   0  0  0  0  0  0  0  0  0  0  0  0
   17.5363   -6.1208    8.3376 O   0  0  0  0  0  0  0  0  0  0  0  0
   17.1286   -5.1736    7.4861 C   0  0  0  0  0  0  0  0  0  0  0  0
   17.6962   -3.9502    7.2604 C   0  0  0  0  0  0  0  0  0  0  0  0
   18.9222   -3.4457    7.9585 C   0  0  0  0  0  0  0  0  0  0  0  0
   19.1752   -3.7829    9.2666 C   0  0  0  0  0  0  0  0  0  0  0  0
   20.3227   -3.3102    9.9157 C   0  0  0  0  0  0  0  0  0  0  0  0
   21.2088   -2.5050    9.2554 C   0  0  0  0  0  0  0  0  0  0  0  0
   20.9679   -2.1576    7.9405 C   0  0  0  0  0  0  0  0  0  0  0  0
   19.8315   -2.6341    7.3199 C   0  0  0  0  0  0  0  0  0  0  0  0
   21.8954   -1.3403    7.3169 O   0  0  0  0  0  0  0  0  0  0  0  0
   22.6212   -0.3517    8.0277 C   0  0  0  0  0  0  0  0  0  0  0  0
   22.9981   -0.8205    9.3927 C   0  0  0  0  0  0  0  0  0  0  0  0
   22.3692   -1.9907    9.8159 O   0  0  0  0  0  0  0  0  0  0  0  0
   17.0874   -3.1625    6.3372 C   0  0  0  0  0  0  0  0  0  0  0  0
   15.7686   -4.0982    5.8031 S   0  0  0  0  0  0  0  0  0  0  0  0
   16.0165   -5.4853    6.7708 C   0  0  0  0  0  0  0  0  0  0  0  0
  1  2  2  0
  2  3  1  0
  3  4  2  0
  4  5  1  0
  5  6  1  0
  6  7  1  0
  7  8  1  0
  8  9  1  0
  9 10  1  0
  4 11  1  0
 11 12  1  0
 12 13  1  0
 13 14  1  0
 14 15  2  0
 15 16  1  0
 16 17  2  0
 17 18  1  0
 18 19  2  0
 18 20  1  0
 20 21  1  0
 21 22  1  0
 22 23  1  0
 13 24  2  0
 24 25  1  0
 25 26  1  0
 26  2  1  0
 10  5  1  0
 26 12  2  0
 19 14  1  0
 23 17  1  0
M  END
$$$$
