
     RDKit          3D

 26 30  0  0  0  0  0  0  0  0999 V2000
   14.1051   -6.7995    6.3820 O   0  0  0  0  0  0  0  0  0  0  0  0
   15.1458   -6.6578    7.0413 C   0  0  0  0  0  0  0  0  0  0  0  0
   15.6341   -7.5905    7.9276 C   0  0  0  0  0  0  0  0  0  0  0  0
   16.8088   -7.2526    8.5692 C   0  0  0  0  0  0  0  0  0  0  0  0
   17.3549   -8.2043    9.5085 N   0  0  0  0  0  0  0  0  0  0  0  0
   16.5134   -9.2910    9.9399 C   0  0  0  0  0  0  0  0  0  0  0  0
   17.4495  -10.4638   10.2408 C   0  0  0  0  0  0  0  0  0  0  0  0
   18.2729  -10.0271   11.2716 O   0  0  0  0  0  0  0  0  0  0  0  0
   19.2045   -9.1035   10.8386 C   0  0  0  0  0  0  0  0  0  0  0  0
   18.6809   -8.0395    9.9634 C   0  0  0  0  0  0  0  0  0  0  0  0
   17.4156   -6.1332    8.3549 O   0  0  0  0  0  0  0  0  0  0  0  0
   17.0067   -5.1786    7.5125 C   0  0  0  0  0  0  0  0  0  0  0  0
   17.6094   -3.9796    7.2496 C   0  0  0  0  0  0  0  0  0  0  0  0
   18.8832   -3.5162    7.8881 C   0  0  0  0  0  0  0  0  0  0  0  0
   19.1971   -3.8803    9.1756 C   0  0  0  0  0  0  0  0  0  0  0  0
   20.3891   -3.4459    9.7690 C   0  0  0  0  0  0  0  0  0  0  0  0
   21.2586   -2.6521    9.0738 C   0  0  0  0  0  0  0  0  0  0  0  0
   20.9567   -2.2780    7.7790 C   0  0  0  0  0  0  0  0  0  0  0  0
   19.7772   -2.7169    7.2135 C   0  0  0  0  0  0  0  0  0  0  0  0
   21.8698   -1.4737    7.1184 O   0  0  0  0  0  0  0  0  0  0  0  0
   22.6570   -0.5144    7.8035 C   0  0  0  0  0  0  0  0  0  0  0  0
   23.0944   -1.0139    9.1394 C   0  0  0  0  0  0  0  0  0  0  0  0
   22.4598   -2.1750    9.5786 O   0  0  0  0  0  0  0  0  0  0  0  0
   16.9905   -3.1774    6.3459 C   0  0  0  0  0  0  0  0  0  0  0  0
   15.6151   -4.0667    5.8797 S   0  0  0  0  0  0  0  0  0  0  0  0
   15.8531   -5.4539    6.8498 C   0  0  0  0  0  0  0  0  0  0  0  0
  1  2  2  0
  2  3  1  0
  3  4  2  0
  4  5  1  0
  5  6  1  0
  6  7  1  0
  7  8  1  0
  8  9  1  0
  9 10  1  0
  4 11  1  0
 11 12  1  0
 12 13  1  0
 13 14  1  0
 14 15  2  0
 15 16  1  0
 16 17  2  0
 17 18  1  0
 18 19  2  0
 18 20  1  0
 20 21  1  0
 21 22  1  0
 22 23  1  0
 13 24  2  0
 24 25  1  0
 25 26  1  0
 26  2  1  0
 10  5  1  0
 26 12  2  0
 19 14  1  0
 23 17  1  0
M  END
$$$$
