
     RDKit          3D

 26 30  0  0  0  0  0  0  0  0999 V2000
   14.1622   -6.7593    6.0704 O   0  0  0  0  0  0  0  0  0  0  0  0
   15.1808   -6.6462    6.7686 C   0  0  0  0  0  0  0  0  0  0  0  0
   15.6597   -7.6288    7.6048 C   0  0  0  0  0  0  0  0  0  0  0  0
   16.8092   -7.3167    8.3025 C   0  0  0  0  0  0  0  0  0  0  0  0
   17.3447   -8.3210    9.1919 N   0  0  0  0  0  0  0  0  0  0  0  0
   18.6877   -8.1457    9.6827 C   0  0  0  0  0  0  0  0  0  0  0  0
   18.7276   -8.8028   11.0643 C   0  0  0  0  0  0  0  0  0  0  0  0
   18.4445  -10.1457   10.8456 O   0  0  0  0  0  0  0  0  0  0  0  0
   17.1141  -10.3542   10.5377 C   0  0  0  0  0  0  0  0  0  0  0  0
   16.5408   -9.4252    9.5475 C   0  0  0  0  0  0  0  0  0  0  0  0
   17.4021   -6.1760    8.1820 O   0  0  0  0  0  0  0  0  0  0  0  0
   17.0009   -5.1732    7.3935 C   0  0  0  0  0  0  0  0  0  0  0  0
   17.5898   -3.9500    7.2298 C   0  0  0  0  0  0  0  0  0  0  0  0
   18.8362   -3.5108    7.9358 C   0  0  0  0  0  0  0  0  0  0  0  0
   19.1160   -3.9510    9.2073 C   0  0  0  0  0  0  0  0  0  0  0  0
   20.2825   -3.5391    9.8640 C   0  0  0  0  0  0  0  0  0  0  0  0
   21.1607   -2.6916    9.2475 C   0  0  0  0  0  0  0  0  0  0  0  0
   20.8930   -2.2409    7.9697 C   0  0  0  0  0  0  0  0  0  0  0  0
   19.7382   -2.6589    7.3410 C   0  0  0  0  0  0  0  0  0  0  0  0
   21.8136   -1.3845    7.3899 O   0  0  0  0  0  0  0  0  0  0  0  0
   22.5648   -0.4599    8.1580 C   0  0  0  0  0  0  0  0  0  0  0  0
   22.9685   -1.0367    9.4732 C   0  0  0  0  0  0  0  0  0  0  0  0
   22.3385   -2.2314    9.8188 O   0  0  0  0  0  0  0  0  0  0  0  0
   16.9832   -3.0983    6.3637 C   0  0  0  0  0  0  0  0  0  0  0  0
   15.6377   -3.9756    5.7979 S   0  0  0  0  0  0  0  0  0  0  0  0
   15.8720   -5.4212    6.6796 C   0  0  0  0  0  0  0  0  0  0  0  0
  1  2  2  0
  2  3  1  0
  3  4  2  0
  4  5  1  0
  5  6  1  0
  6  7  1  0
  7  8  1  0
  8  9  1  0
  9 10  1  0
  4 11  1  0
 11 12  1  0
 12 13  1  0
 13 14  1  0
 14 15  2  0
 15 16  1  0
 16 17  2  0
 17 18  1  0
 18 19  2  0
 18 20  1  0
 20 21  1  0
 21 22  1  0
 22 23  1  0
 13 24  2  0
 24 25  1  0
 25 26  1  0
 26  2  1  0
 10  5  1  0
 26 12  2  0
 19 14  1  0
 23 17  1  0
M  END
$$$$
