
     RDKit          3D

 26 30  0  0  0  0  0  0  0  0999 V2000
   14.2056   -6.7811    6.1436 O   0  0  0  0  0  0  0  0  0  0  0  0
   15.2257   -6.6490    6.8364 C   0  0  0  0  0  0  0  0  0  0  0  0
   15.6864   -7.5938    7.7248 C   0  0  0  0  0  0  0  0  0  0  0  0
   16.8409   -7.2653    8.4065 C   0  0  0  0  0  0  0  0  0  0  0  0
   17.3577   -8.2298    9.3493 N   0  0  0  0  0  0  0  0  0  0  0  0
   16.5030   -9.3216    9.7401 C   0  0  0  0  0  0  0  0  0  0  0  0
   17.4291  -10.4989   10.0539 C   0  0  0  0  0  0  0  0  0  0  0  0
   18.2207  -10.0766   11.1152 O   0  0  0  0  0  0  0  0  0  0  0  0
   19.1654   -9.1480   10.7233 C   0  0  0  0  0  0  0  0  0  0  0  0
   18.6691   -8.0720    9.8468 C   0  0  0  0  0  0  0  0  0  0  0  0
   17.4543   -6.1435    8.2259 O   0  0  0  0  0  0  0  0  0  0  0  0
   17.0717   -5.1775    7.3841 C   0  0  0  0  0  0  0  0  0  0  0  0
   17.6825   -3.9755    7.1558 C   0  0  0  0  0  0  0  0  0  0  0  0
   18.9362   -3.5216    7.8392 C   0  0  0  0  0  0  0  0  0  0  0  0
   19.2232   -3.9243    9.1214 C   0  0  0  0  0  0  0  0  0  0  0  0
   20.3966   -3.4986    9.7569 C   0  0  0  0  0  0  0  0  0  0  0  0
   21.2744   -2.6749    9.1086 C   0  0  0  0  0  0  0  0  0  0  0  0
   20.9995   -2.2618    7.8197 C   0  0  0  0  0  0  0  0  0  0  0  0
   19.8381   -2.6928    7.2123 C   0  0  0  0  0  0  0  0  0  0  0  0
   21.9200   -1.4282    7.2074 O   0  0  0  0  0  0  0  0  0  0  0  0
   22.6814   -0.4846    7.9416 C   0  0  0  0  0  0  0  0  0  0  0  0
   23.0919   -1.0232    9.2708 C   0  0  0  0  0  0  0  0  0  0  0  0
   22.4586   -2.2036    9.6571 O   0  0  0  0  0  0  0  0  0  0  0  0
   17.0918   -3.1609    6.2444 C   0  0  0  0  0  0  0  0  0  0  0  0
   15.7311   -4.0429    5.7245 S   0  0  0  0  0  0  0  0  0  0  0  0
   15.9389   -5.4431    6.6828 C   0  0  0  0  0  0  0  0  0  0  0  0
  1  2  2  0
  2  3  1  0
  3  4  2  0
  4  5  1  0
  5  6  1  0
  6  7  1  0
  7  8  1  0
  8  9  1  0
  9 10  1  0
  4 11  1  0
 11 12  1  0
 12 13  1  0
 13 14  1  0
 14 15  2  0
 15 16  1  0
 16 17  2  0
 17 18  1  0
 18 19  2  0
 18 20  1  0
 20 21  1  0
 21 22  1  0
 22 23  1  0
 13 24  2  0
 24 25  1  0
 25 26  1  0
 26  2  1  0
 10  5  1  0
 26 12  2  0
 19 14  1  0
 23 17  1  0
M  END
$$$$
