
     RDKit          3D

 26 30  0  0  0  0  0  0  0  0999 V2000
   14.2647   -6.9440    6.1502 O   0  0  0  0  0  0  0  0  0  0  0  0
   15.2767   -6.7773    6.8474 C   0  0  0  0  0  0  0  0  0  0  0  0
   15.7265   -7.6764    7.7872 C   0  0  0  0  0  0  0  0  0  0  0  0
   16.8732   -7.3142    8.4650 C   0  0  0  0  0  0  0  0  0  0  0  0
   17.3785   -8.2303    9.4609 N   0  0  0  0  0  0  0  0  0  0  0  0
   16.5173   -9.2990    9.8986 C   0  0  0  0  0  0  0  0  0  0  0  0
   17.4374  -10.4606   10.2811 C   0  0  0  0  0  0  0  0  0  0  0  0
   18.2197   -9.9862   11.3272 O   0  0  0  0  0  0  0  0  0  0  0  0
   19.1705   -9.0807   10.8977 C   0  0  0  0  0  0  0  0  0  0  0  0
   18.6854   -8.0499    9.9626 C   0  0  0  0  0  0  0  0  0  0  0  0
   17.4893   -6.2029    8.2357 O   0  0  0  0  0  0  0  0  0  0  0  0
   17.1170   -5.2802    7.3422 C   0  0  0  0  0  0  0  0  0  0  0  0
   17.7311   -4.0912    7.0613 C   0  0  0  0  0  0  0  0  0  0  0  0
   18.9770   -3.6035    7.7356 C   0  0  0  0  0  0  0  0  0  0  0  0
   19.2534   -3.9491    9.0367 C   0  0  0  0  0  0  0  0  0  0  0  0
   20.4195   -3.4922    9.6637 C   0  0  0  0  0  0  0  0  0  0  0  0
   21.3007   -2.6942    8.9882 C   0  0  0  0  0  0  0  0  0  0  0  0
   21.0364   -2.3385    7.6801 C   0  0  0  0  0  0  0  0  0  0  0  0
   19.8820   -2.7995    7.0815 C   0  0  0  0  0  0  0  0  0  0  0  0
   21.9600   -1.5290    7.0406 O   0  0  0  0  0  0  0  0  0  0  0  0
   22.7116   -0.5518    7.7400 C   0  0  0  0  0  0  0  0  0  0  0  0
   23.1115   -1.0306    9.0950 C   0  0  0  0  0  0  0  0  0  0  0  0
   22.4783   -2.1954    9.5265 O   0  0  0  0  0  0  0  0  0  0  0  0
   17.1516   -3.3231    6.1034 C   0  0  0  0  0  0  0  0  0  0  0  0
   15.7965   -4.2302    5.6124 S   0  0  0  0  0  0  0  0  0  0  0  0
   15.9923   -5.5806    6.6420 C   0  0  0  0  0  0  0  0  0  0  0  0
  1  2  2  0
  2  3  1  0
  3  4  2  0
  4  5  1  0
  5  6  1  0
  6  7  1  0
  7  8  1  0
  8  9  1  0
  9 10  1  0
  4 11  1  0
 11 12  1  0
 12 13  1  0
 13 14  1  0
 14 15  2  0
 15 16  1  0
 16 17  2  0
 17 18  1  0
 18 19  2  0
 18 20  1  0
 20 21  1  0
 21 22  1  0
 22 23  1  0
 13 24  2  0
 24 25  1  0
 25 26  1  0
 26  2  1  0
 10  5  1  0
 26 12  2  0
 19 14  1  0
 23 17  1  0
M  END
$$$$
