
     RDKit          3D

 26 30  0  0  0  0  0  0  0  0999 V2000
   14.3559   -6.8503    6.0728 O   0  0  0  0  0  0  0  0  0  0  0  0
   15.3679   -6.7036    6.7745 C   0  0  0  0  0  0  0  0  0  0  0  0
   15.8323   -7.6403    7.6694 C   0  0  0  0  0  0  0  0  0  0  0  0
   16.9763   -7.2955    8.3608 C   0  0  0  0  0  0  0  0  0  0  0  0
   17.4967   -8.2512    9.3107 N   0  0  0  0  0  0  0  0  0  0  0  0
   16.6637   -9.3690    9.6739 C   0  0  0  0  0  0  0  0  0  0  0  0
   17.6146  -10.5218   10.0039 C   0  0  0  0  0  0  0  0  0  0  0  0
   18.3675  -10.0843   11.0870 O   0  0  0  0  0  0  0  0  0  0  0  0
   19.2951   -9.1271   10.7239 C   0  0  0  0  0  0  0  0  0  0  0  0
   18.7905   -8.0599    9.8415 C   0  0  0  0  0  0  0  0  0  0  0  0
   17.5770   -6.1665    8.1830 O   0  0  0  0  0  0  0  0  0  0  0  0
   17.1899   -5.2074    7.3354 C   0  0  0  0  0  0  0  0  0  0  0  0
   17.7875   -3.9983    7.1097 C   0  0  0  0  0  0  0  0  0  0  0  0
   19.0290   -3.5269    7.8034 C   0  0  0  0  0  0  0  0  0  0  0  0
   19.3070   -3.9192    9.0908 C   0  0  0  0  0  0  0  0  0  0  0  0
   20.4691   -3.4772    9.7358 C   0  0  0  0  0  0  0  0  0  0  0  0
   21.3445   -2.6475    9.0919 C   0  0  0  0  0  0  0  0  0  0  0  0
   21.0785   -2.2446    7.7979 C   0  0  0  0  0  0  0  0  0  0  0  0
   19.9282   -2.6917    7.1810 C   0  0  0  0  0  0  0  0  0  0  0  0
   21.9962   -1.4044    7.1904 O   0  0  0  0  0  0  0  0  0  0  0  0
   22.7396   -0.4485    7.9270 C   0  0  0  0  0  0  0  0  0  0  0  0
   23.1422   -0.9751    9.2634 C   0  0  0  0  0  0  0  0  0  0  0  0
   22.5178   -2.1602    9.6499 O   0  0  0  0  0  0  0  0  0  0  0  0
   17.1949   -3.1934    6.1909 C   0  0  0  0  0  0  0  0  0  0  0  0
   15.8503   -4.0940    5.6608 S   0  0  0  0  0  0  0  0  0  0  0  0
   16.0670   -5.4891    6.6244 C   0  0  0  0  0  0  0  0  0  0  0  0
  1  2  2  0
  2  3  1  0
  3  4  2  0
  4  5  1  0
  5  6  1  0
  6  7  1  0
  7  8  1  0
  8  9  1  0
  9 10  1  0
  4 11  1  0
 11 12  1  0
 12 13  1  0
 13 14  1  0
 14 15  2  0
 15 16  1  0
 16 17  2  0
 17 18  1  0
 18 19  2  0
 18 20  1  0
 20 21  1  0
 21 22  1  0
 22 23  1  0
 13 24  2  0
 24 25  1  0
 25 26  1  0
 26  2  1  0
 10  5  1  0
 26 12  2  0
 19 14  1  0
 23 17  1  0
M  END
$$$$
