
     RDKit          3D

 26 30  0  0  0  0  0  0  0  0999 V2000
   14.3041   -6.8424    5.9646 O   0  0  0  0  0  0  0  0  0  0  0  0
   15.3169   -6.7196    6.6696 C   0  0  0  0  0  0  0  0  0  0  0  0
   15.7924   -7.6928    7.5185 C   0  0  0  0  0  0  0  0  0  0  0  0
   16.9355   -7.3705    8.2220 C   0  0  0  0  0  0  0  0  0  0  0  0
   17.4673   -8.3647    9.1249 N   0  0  0  0  0  0  0  0  0  0  0  0
   18.8087   -8.1846    9.6183 C   0  0  0  0  0  0  0  0  0  0  0  0
   18.8434   -8.8256   11.0076 C   0  0  0  0  0  0  0  0  0  0  0  0
   18.5602  -10.1708   10.8034 O   0  0  0  0  0  0  0  0  0  0  0  0
   17.2307  -10.3821   10.4934 C   0  0  0  0  0  0  0  0  0  0  0  0
   16.6614   -9.4643    9.4905 C   0  0  0  0  0  0  0  0  0  0  0  0
   17.5257   -6.2291    8.0955 O   0  0  0  0  0  0  0  0  0  0  0  0
   17.1275   -5.2350    7.2946 C   0  0  0  0  0  0  0  0  0  0  0  0
   17.7138   -4.0114    7.1240 C   0  0  0  0  0  0  0  0  0  0  0  0
   18.9533   -3.5617    7.8355 C   0  0  0  0  0  0  0  0  0  0  0  0
   19.2321   -4.0009    9.1075 C   0  0  0  0  0  0  0  0  0  0  0  0
   20.3923   -3.5791    9.7693 C   0  0  0  0  0  0  0  0  0  0  0  0
   21.2650   -2.7228    9.1573 C   0  0  0  0  0  0  0  0  0  0  0  0
   20.9981   -2.2729    7.8791 C   0  0  0  0  0  0  0  0  0  0  0  0
   19.8497   -2.7007    7.2453 C   0  0  0  0  0  0  0  0  0  0  0  0
   21.9130   -1.4073    7.3039 O   0  0  0  0  0  0  0  0  0  0  0  0
   22.6527   -0.4768    8.0762 C   0  0  0  0  0  0  0  0  0  0  0  0
   23.0566   -1.0515    9.3922 C   0  0  0  0  0  0  0  0  0  0  0  0
   22.4363   -2.2525    9.7338 O   0  0  0  0  0  0  0  0  0  0  0  0
   17.1112   -3.1698    6.2454 C   0  0  0  0  0  0  0  0  0  0  0  0
   15.7729   -4.0566    5.6775 S   0  0  0  0  0  0  0  0  0  0  0  0
   16.0049   -5.4932    6.5744 C   0  0  0  0  0  0  0  0  0  0  0  0
  1  2  2  0
  2  3  1  0
  3  4  2  0
  4  5  1  0
  5  6  1  0
  6  7  1  0
  7  8  1  0
  8  9  1  0
  9 10  1  0
  4 11  1  0
 11 12  1  0
 12 13  1  0
 13 14  1  0
 14 15  2  0
 15 16  1  0
 16 17  2  0
 17 18  1  0
 18 19  2  0
 18 20  1  0
 20 21  1  0
 21 22  1  0
 22 23  1  0
 13 24  2  0
 24 25  1  0
 25 26  1  0
 26  2  1  0
 10  5  1  0
 26 12  2  0
 19 14  1  0
 23 17  1  0
M  END
$$$$
