
     RDKit          3D

 26 30  0  0  0  0  0  0  0  0999 V2000
   14.2065   -6.6620    5.9682 O   0  0  0  0  0  0  0  0  0  0  0  0
   15.2058   -6.5372    6.6919 C   0  0  0  0  0  0  0  0  0  0  0  0
   15.6346   -7.4870    7.5908 C   0  0  0  0  0  0  0  0  0  0  0  0
   16.7696   -7.1665    8.3082 C   0  0  0  0  0  0  0  0  0  0  0  0
   17.2528   -8.1365    9.2632 N   0  0  0  0  0  0  0  0  0  0  0  0
   16.3952   -9.2447    9.5975 C   0  0  0  0  0  0  0  0  0  0  0  0
   17.3211  -10.4136    9.9417 C   0  0  0  0  0  0  0  0  0  0  0  0
   18.0536   -9.9950   11.0460 O   0  0  0  0  0  0  0  0  0  0  0  0
   19.0034   -9.0488   10.7130 C   0  0  0  0  0  0  0  0  0  0  0  0
   18.5359   -7.9679    9.8267 C   0  0  0  0  0  0  0  0  0  0  0  0
   17.3937   -6.0473    8.1499 O   0  0  0  0  0  0  0  0  0  0  0  0
   17.0416   -5.0768    7.3000 C   0  0  0  0  0  0  0  0  0  0  0  0
   17.6651   -3.8772    7.0943 C   0  0  0  0  0  0  0  0  0  0  0  0
   18.8997   -3.4317    7.8167 C   0  0  0  0  0  0  0  0  0  0  0  0
   19.1364   -3.8245    9.1123 C   0  0  0  0  0  0  0  0  0  0  0  0
   20.2921   -3.4069    9.7843 C   0  0  0  0  0  0  0  0  0  0  0  0
   21.2026   -2.6008    9.1590 C   0  0  0  0  0  0  0  0  0  0  0  0
   20.9783   -2.1979    7.8572 C   0  0  0  0  0  0  0  0  0  0  0  0
   19.8335   -2.6208    7.2136 C   0  0  0  0  0  0  0  0  0  0  0  0
   21.9303   -1.3822    7.2693 O   0  0  0  0  0  0  0  0  0  0  0  0
   22.6774   -0.4405    8.0204 C   0  0  0  0  0  0  0  0  0  0  0  0
   23.0343   -0.9702    9.3685 C   0  0  0  0  0  0  0  0  0  0  0  0
   22.3728   -2.1386    9.7441 O   0  0  0  0  0  0  0  0  0  0  0  0
   17.1063   -3.0567    6.1680 C   0  0  0  0  0  0  0  0  0  0  0  0
   15.7576   -3.9303    5.6043 S   0  0  0  0  0  0  0  0  0  0  0  0
   15.9293   -5.3345    6.5639 C   0  0  0  0  0  0  0  0  0  0  0  0
  1  2  2  0
  2  3  1  0
  3  4  2  0
  4  5  1  0
  5  6  1  0
  6  7  1  0
  7  8  1  0
  8  9  1  0
  9 10  1  0
  4 11  1  0
 11 12  1  0
 12 13  1  0
 13 14  1  0
 14 15  2  0
 15 16  1  0
 16 17  2  0
 17 18  1  0
 18 19  2  0
 18 20  1  0
 20 21  1  0
 21 22  1  0
 22 23  1  0
 13 24  2  0
 24 25  1  0
 25 26  1  0
 26  2  1  0
 10  5  1  0
 26 12  2  0
 19 14  1  0
 23 17  1  0
M  END
$$$$
