
     RDKit          3D

 26 30  0  0  0  0  0  0  0  0999 V2000
   14.1797   -6.6326    5.9756 O   0  0  0  0  0  0  0  0  0  0  0  0
   15.1917   -6.4882    6.6777 C   0  0  0  0  0  0  0  0  0  0  0  0
   15.6497   -7.4229    7.5780 C   0  0  0  0  0  0  0  0  0  0  0  0
   16.7949   -7.0813    8.2689 C   0  0  0  0  0  0  0  0  0  0  0  0
   17.3086   -8.0350    9.2244 N   0  0  0  0  0  0  0  0  0  0  0  0
   16.4614   -9.1357    9.6067 C   0  0  0  0  0  0  0  0  0  0  0  0
   17.3970  -10.2998    9.9407 C   0  0  0  0  0  0  0  0  0  0  0  0
   18.1662   -9.8629   11.0124 O   0  0  0  0  0  0  0  0  0  0  0  0
   19.1054   -8.9243   10.6312 C   0  0  0  0  0  0  0  0  0  0  0  0
   18.6098   -7.8586    9.7419 C   0  0  0  0  0  0  0  0  0  0  0  0
   17.4025   -5.9568    8.0859 O   0  0  0  0  0  0  0  0  0  0  0  0
   17.0219   -4.9999    7.2328 C   0  0  0  0  0  0  0  0  0  0  0  0
   17.6269   -3.7955    7.0016 C   0  0  0  0  0  0  0  0  0  0  0  0
   18.8704   -3.3277    7.6942 C   0  0  0  0  0  0  0  0  0  0  0  0
   19.8038   -2.5705    7.0277 C   0  0  0  0  0  0  0  0  0  0  0  0
   20.9647   -2.1343    7.6786 C   0  0  0  0  0  0  0  0  0  0  0  0
   21.1856   -2.4565    8.9889 C   0  0  0  0  0  0  0  0  0  0  0  0
   20.2566   -3.2169    9.6718 C   0  0  0  0  0  0  0  0  0  0  0  0
   19.1199   -3.6363    9.0117 C   0  0  0  0  0  0  0  0  0  0  0  0
   20.5272   -3.5159   10.9963 O   0  0  0  0  0  0  0  0  0  0  0  0
   21.8510   -3.7032   11.4671 C   0  0  0  0  0  0  0  0  0  0  0  0
   22.8052   -2.7584   10.8175 C   0  0  0  0  0  0  0  0  0  0  0  0
   22.3038   -2.0697    9.7138 O   0  0  0  0  0  0  0  0  0  0  0  0
   17.0401   -2.9919    6.0779 C   0  0  0  0  0  0  0  0  0  0  0  0
   15.6908   -3.8873    5.5510 S   0  0  0  0  0  0  0  0  0  0  0  0
   15.8982   -5.2786    6.5221 C   0  0  0  0  0  0  0  0  0  0  0  0
  1  2  2  0
  2  3  1  0
  3  4  2  0
  4  5  1  0
  5  6  1  0
  6  7  1  0
  7  8  1  0
  8  9  1  0
  9 10  1  0
  4 11  1  0
 11 12  1  0
 12 13  1  0
 13 14  1  0
 14 15  2  0
 15 16  1  0
 16 17  2  0
 17 18  1  0
 18 19  2  0
 18 20  1  0
 20 21  1  0
 21 22  1  0
 22 23  1  0
 13 24  2  0
 24 25  1  0
 25 26  1  0
 26  2  1  0
 10  5  1  0
 26 12  2  0
 19 14  1  0
 23 17  1  0
M  END
$$$$
