
     RDKit          3D

 26 30  0  0  0  0  0  0  0  0999 V2000
   14.1783   -6.7580    6.0647 O   0  0  0  0  0  0  0  0  0  0  0  0
   15.1874   -6.6294    6.7739 C   0  0  0  0  0  0  0  0  0  0  0  0
   15.6119   -7.5614    7.6933 C   0  0  0  0  0  0  0  0  0  0  0  0
   16.7596   -7.2393    8.3895 C   0  0  0  0  0  0  0  0  0  0  0  0
   17.2388   -8.1909    9.3648 N   0  0  0  0  0  0  0  0  0  0  0  0
   16.3639   -9.2698    9.7466 C   0  0  0  0  0  0  0  0  0  0  0  0
   17.2708  -10.4479   10.1101 C   0  0  0  0  0  0  0  0  0  0  0  0
   18.0311  -10.0127   11.1889 O   0  0  0  0  0  0  0  0  0  0  0  0
   18.9947   -9.0975   10.8117 C   0  0  0  0  0  0  0  0  0  0  0  0
   18.5348   -8.0335    9.9014 C   0  0  0  0  0  0  0  0  0  0  0  0
   17.3988   -6.1346    8.1944 O   0  0  0  0  0  0  0  0  0  0  0  0
   17.0518   -5.1817    7.3226 C   0  0  0  0  0  0  0  0  0  0  0  0
   17.6910   -3.9979    7.0780 C   0  0  0  0  0  0  0  0  0  0  0  0
   18.9403   -3.5524    7.7749 C   0  0  0  0  0  0  0  0  0  0  0  0
   19.2193   -3.9710    9.0538 C   0  0  0  0  0  0  0  0  0  0  0  0
   20.3886   -3.5532    9.7018 C   0  0  0  0  0  0  0  0  0  0  0  0
   21.2703   -2.7213    9.0693 C   0  0  0  0  0  0  0  0  0  0  0  0
   21.0035   -2.2923    7.7839 C   0  0  0  0  0  0  0  0  0  0  0  0
   19.8460   -2.7157    7.1639 C   0  0  0  0  0  0  0  0  0  0  0  0
   21.9277   -1.4510    7.1879 O   0  0  0  0  0  0  0  0  0  0  0  0
   22.6843   -0.5166    7.9386 C   0  0  0  0  0  0  0  0  0  0  0  0
   23.0866   -1.0717    9.2635 C   0  0  0  0  0  0  0  0  0  0  0  0
   22.4510   -2.2568    9.6311 O   0  0  0  0  0  0  0  0  0  0  0  0
   17.1344   -3.1939    6.1362 C   0  0  0  0  0  0  0  0  0  0  0  0
   15.7663   -4.0613    5.6108 S   0  0  0  0  0  0  0  0  0  0  0  0
   15.9275   -5.4418    6.6058 C   0  0  0  0  0  0  0  0  0  0  0  0
  1  2  2  0
  2  3  1  0
  3  4  2  0
  4  5  1  0
  5  6  1  0
  6  7  1  0
  7  8  1  0
  8  9  1  0
  9 10  1  0
  4 11  1  0
 11 12  1  0
 12 13  1  0
 13 14  1  0
 14 15  2  0
 15 16  1  0
 16 17  2  0
 17 18  1  0
 18 19  2  0
 18 20  1  0
 20 21  1  0
 21 22  1  0
 22 23  1  0
 13 24  2  0
 24 25  1  0
 25 26  1  0
 26  2  1  0
 10  5  1  0
 26 12  2  0
 19 14  1  0
 23 17  1  0
M  END
$$$$
