
     RDKit          3D

 26 30  0  0  0  0  0  0  0  0999 V2000
   14.4098   -6.8241    6.0106 O   0  0  0  0  0  0  0  0  0  0  0  0
   15.3912   -6.6475    6.7478 C   0  0  0  0  0  0  0  0  0  0  0  0
   15.8449   -7.5660    7.6668 C   0  0  0  0  0  0  0  0  0  0  0  0
   16.9537   -7.1883    8.3970 C   0  0  0  0  0  0  0  0  0  0  0  0
   17.4617   -8.1240    9.3732 N   0  0  0  0  0  0  0  0  0  0  0  0
   16.6278   -9.2394    9.7416 C   0  0  0  0  0  0  0  0  0  0  0  0
   17.5783  -10.3811   10.1093 C   0  0  0  0  0  0  0  0  0  0  0  0
   18.3095   -9.9203   11.1975 O   0  0  0  0  0  0  0  0  0  0  0  0
   19.2387   -8.9649   10.8339 C   0  0  0  0  0  0  0  0  0  0  0  0
   18.7448   -7.9164    9.9234 C   0  0  0  0  0  0  0  0  0  0  0  0
   17.5330   -6.0461    8.2324 O   0  0  0  0  0  0  0  0  0  0  0  0
   17.1543   -5.1030    7.3633 C   0  0  0  0  0  0  0  0  0  0  0  0
   17.7303   -3.8812    7.1501 C   0  0  0  0  0  0  0  0  0  0  0  0
   18.9335   -3.3744    7.8852 C   0  0  0  0  0  0  0  0  0  0  0  0
   19.1387   -3.6977    9.2050 C   0  0  0  0  0  0  0  0  0  0  0  0
   20.2650   -3.2228    9.8888 C   0  0  0  0  0  0  0  0  0  0  0  0
   21.1777   -2.4293    9.2510 C   0  0  0  0  0  0  0  0  0  0  0  0
   20.9849   -2.0959    7.9246 C   0  0  0  0  0  0  0  0  0  0  0  0
   19.8688   -2.5743    7.2698 C   0  0  0  0  0  0  0  0  0  0  0  0
   21.9378   -1.2900    7.3248 O   0  0  0  0  0  0  0  0  0  0  0  0
   22.6431   -0.2967    8.0495 C   0  0  0  0  0  0  0  0  0  0  0  0
   22.9694   -0.7515    9.4322 C   0  0  0  0  0  0  0  0  0  0  0  0
   22.3203   -1.9139    9.8462 O   0  0  0  0  0  0  0  0  0  0  0  0
   17.1528   -3.0977    6.2036 C   0  0  0  0  0  0  0  0  0  0  0  0
   15.8510   -4.0348    5.6316 S   0  0  0  0  0  0  0  0  0  0  0  0
   16.0658   -5.4172    6.6138 C   0  0  0  0  0  0  0  0  0  0  0  0
  1  2  2  0
  2  3  1  0
  3  4  2  0
  4  5  1  0
  5  6  1  0
  6  7  1  0
  7  8  1  0
  8  9  1  0
  9 10  1  0
  4 11  1  0
 11 12  1  0
 12 13  1  0
 13 14  1  0
 14 15  2  0
 15 16  1  0
 16 17  2  0
 17 18  1  0
 18 19  2  0
 18 20  1  0
 20 21  1  0
 21 22  1  0
 22 23  1  0
 13 24  2  0
 24 25  1  0
 25 26  1  0
 26  2  1  0
 10  5  1  0
 26 12  2  0
 19 14  1  0
 23 17  1  0
M  END
$$$$
