
     RDKit          3D

 26 30  0  0  0  0  0  0  0  0999 V2000
   14.2411   -6.7171    5.9800 O   0  0  0  0  0  0  0  0  0  0  0  0
   15.2370   -6.5802    6.7062 C   0  0  0  0  0  0  0  0  0  0  0  0
   15.6713   -7.5221    7.6107 C   0  0  0  0  0  0  0  0  0  0  0  0
   16.8012   -7.1883    8.3301 C   0  0  0  0  0  0  0  0  0  0  0  0
   17.2900   -8.1497    9.2909 N   0  0  0  0  0  0  0  0  0  0  0  0
   16.4316   -9.2509    9.6455 C   0  0  0  0  0  0  0  0  0  0  0  0
   17.3564  -10.4196    9.9936 C   0  0  0  0  0  0  0  0  0  0  0  0
   18.1010   -9.9917   11.0863 O   0  0  0  0  0  0  0  0  0  0  0  0
   19.0510   -9.0528   10.7339 C   0  0  0  0  0  0  0  0  0  0  0  0
   18.5790   -7.9799    9.8403 C   0  0  0  0  0  0  0  0  0  0  0  0
   17.4160   -6.0645    8.1686 O   0  0  0  0  0  0  0  0  0  0  0  0
   17.0579   -5.1009    7.3132 C   0  0  0  0  0  0  0  0  0  0  0  0
   17.6715   -3.8969    7.1039 C   0  0  0  0  0  0  0  0  0  0  0  0
   18.8999   -3.4372    7.8281 C   0  0  0  0  0  0  0  0  0  0  0  0
   19.1233   -3.8011    9.1344 C   0  0  0  0  0  0  0  0  0  0  0  0
   20.2733   -3.3703    9.8080 C   0  0  0  0  0  0  0  0  0  0  0  0
   21.1912   -2.5801    9.1737 C   0  0  0  0  0  0  0  0  0  0  0  0
   20.9803   -2.2062    7.8609 C   0  0  0  0  0  0  0  0  0  0  0  0
   19.8410   -2.6416    7.2160 C   0  0  0  0  0  0  0  0  0  0  0  0
   21.9395   -1.4056    7.2641 O   0  0  0  0  0  0  0  0  0  0  0  0
   22.6811   -0.4485    8.0010 C   0  0  0  0  0  0  0  0  0  0  0  0
   23.0239   -0.9482    9.3641 C   0  0  0  0  0  0  0  0  0  0  0  0
   22.3566   -2.1067    9.7595 O   0  0  0  0  0  0  0  0  0  0  0  0
   17.1084   -3.0856    6.1722 C   0  0  0  0  0  0  0  0  0  0  0  0
   15.7692   -3.9735    5.6084 S   0  0  0  0  0  0  0  0  0  0  0  0
   15.9502   -5.3717    6.5749 C   0  0  0  0  0  0  0  0  0  0  0  0
  1  2  2  0
  2  3  1  0
  3  4  2  0
  4  5  1  0
  5  6  1  0
  6  7  1  0
  7  8  1  0
  8  9  1  0
  9 10  1  0
  4 11  1  0
 11 12  1  0
 12 13  1  0
 13 14  1  0
 14 15  2  0
 15 16  1  0
 16 17  2  0
 17 18  1  0
 18 19  2  0
 18 20  1  0
 20 21  1  0
 21 22  1  0
 22 23  1  0
 13 24  2  0
 24 25  1  0
 25 26  1  0
 26  2  1  0
 10  5  1  0
 26 12  2  0
 19 14  1  0
 23 17  1  0
M  END
$$$$
