
     RDKit          3D

 26 30  0  0  0  0  0  0  0  0999 V2000
   14.3611   -6.8444    6.0919 O   0  0  0  0  0  0  0  0  0  0  0  0
   15.3733   -6.6903    6.7916 C   0  0  0  0  0  0  0  0  0  0  0  0
   15.8529   -7.6285    7.6769 C   0  0  0  0  0  0  0  0  0  0  0  0
   16.9945   -7.2745    8.3677 C   0  0  0  0  0  0  0  0  0  0  0  0
   17.5306   -8.2313    9.3077 N   0  0  0  0  0  0  0  0  0  0  0  0
   16.7030   -9.3485    9.6848 C   0  0  0  0  0  0  0  0  0  0  0  0
   17.6584  -10.5026    9.9972 C   0  0  0  0  0  0  0  0  0  0  0  0
   18.4307  -10.0665   11.0671 O   0  0  0  0  0  0  0  0  0  0  0  0
   19.3527   -9.1100   10.6884 C   0  0  0  0  0  0  0  0  0  0  0  0
   18.8337   -8.0417    9.8157 C   0  0  0  0  0  0  0  0  0  0  0  0
   17.5797   -6.1362    8.1978 O   0  0  0  0  0  0  0  0  0  0  0  0
   17.1771   -5.1750    7.3597 C   0  0  0  0  0  0  0  0  0  0  0  0
   17.7580   -3.9562    7.1427 C   0  0  0  0  0  0  0  0  0  0  0  0
   18.9954   -3.4743    7.8365 C   0  0  0  0  0  0  0  0  0  0  0  0
   19.2727   -3.8582    9.1266 C   0  0  0  0  0  0  0  0  0  0  0  0
   20.4309   -3.4065    9.7718 C   0  0  0  0  0  0  0  0  0  0  0  0
   21.3033   -2.5755    9.1253 C   0  0  0  0  0  0  0  0  0  0  0  0
   21.0380   -2.1811    7.8286 C   0  0  0  0  0  0  0  0  0  0  0  0
   19.8915   -2.6377    7.2116 C   0  0  0  0  0  0  0  0  0  0  0  0
   21.9525   -1.3392    7.2185 O   0  0  0  0  0  0  0  0  0  0  0  0
   22.6891   -0.3753    7.9517 C   0  0  0  0  0  0  0  0  0  0  0  0
   23.0915   -0.8925    9.2917 C   0  0  0  0  0  0  0  0  0  0  0  0
   22.4727   -2.0789    9.6832 O   0  0  0  0  0  0  0  0  0  0  0  0
   17.1518   -3.1513    6.2327 C   0  0  0  0  0  0  0  0  0  0  0  0
   15.8175   -4.0650    5.6991 S   0  0  0  0  0  0  0  0  0  0  0  0
   16.0558   -5.4654    6.6499 C   0  0  0  0  0  0  0  0  0  0  0  0
  1  2  2  0
  2  3  1  0
  3  4  2  0
  4  5  1  0
  5  6  1  0
  6  7  1  0
  7  8  1  0
  8  9  1  0
  9 10  1  0
  4 11  1  0
 11 12  1  0
 12 13  1  0
 13 14  1  0
 14 15  2  0
 15 16  1  0
 16 17  2  0
 17 18  1  0
 18 19  2  0
 18 20  1  0
 20 21  1  0
 21 22  1  0
 22 23  1  0
 13 24  2  0
 24 25  1  0
 25 26  1  0
 26  2  1  0
 10  5  1  0
 26 12  2  0
 19 14  1  0
 23 17  1  0
M  END
$$$$
