
     RDKit          3D

 26 30  0  0  0  0  0  0  0  0999 V2000
   14.1661   -6.6754    6.0507 O   0  0  0  0  0  0  0  0  0  0  0  0
   15.1991   -6.5690    6.7286 C   0  0  0  0  0  0  0  0  0  0  0  0
   15.6699   -7.5418    7.5807 C   0  0  0  0  0  0  0  0  0  0  0  0
   16.8383   -7.2395    8.2508 C   0  0  0  0  0  0  0  0  0  0  0  0
   17.3662   -8.2339    9.1557 N   0  0  0  0  0  0  0  0  0  0  0  0
   18.7317   -8.0958    9.5935 C   0  0  0  0  0  0  0  0  0  0  0  0
   18.7956   -8.7074   10.9950 C   0  0  0  0  0  0  0  0  0  0  0  0
   18.4534  -10.0445   10.8331 O   0  0  0  0  0  0  0  0  0  0  0  0
   17.1057  -10.2103   10.5787 C   0  0  0  0  0  0  0  0  0  0  0  0
   16.5336   -9.2928    9.5770 C   0  0  0  0  0  0  0  0  0  0  0  0
   17.4549   -6.1162    8.0920 O   0  0  0  0  0  0  0  0  0  0  0  0
   17.0630   -5.1239    7.2858 C   0  0  0  0  0  0  0  0  0  0  0  0
   17.6767   -3.9191    7.0818 C   0  0  0  0  0  0  0  0  0  0  0  0
   18.9450   -3.4920    7.7555 C   0  0  0  0  0  0  0  0  0  0  0  0
   19.2553   -3.9384    9.0177 C   0  0  0  0  0  0  0  0  0  0  0  0
   20.4423   -3.5378    9.6440 C   0  0  0  0  0  0  0  0  0  0  0  0
   21.3102   -2.6951    9.0068 C   0  0  0  0  0  0  0  0  0  0  0  0
   21.0119   -2.2381    7.7381 C   0  0  0  0  0  0  0  0  0  0  0  0
   19.8374   -2.6451    7.1393 C   0  0  0  0  0  0  0  0  0  0  0  0
   21.9233   -1.3870    7.1364 O   0  0  0  0  0  0  0  0  0  0  0  0
   22.7021   -0.4709    7.8870 C   0  0  0  0  0  0  0  0  0  0  0  0
   23.1364   -1.0551    9.1890 C   0  0  0  0  0  0  0  0  0  0  0  0
   22.5065   -2.2460    9.5477 O   0  0  0  0  0  0  0  0  0  0  0  0
   17.0747   -3.0749    6.2052 C   0  0  0  0  0  0  0  0  0  0  0  0
   15.6998   -3.9342    5.6843 S   0  0  0  0  0  0  0  0  0  0  0  0
   15.9164   -5.3629    6.5975 C   0  0  0  0  0  0  0  0  0  0  0  0
  1  2  2  0
  2  3  1  0
  3  4  2  0
  4  5  1  0
  5  6  1  0
  6  7  1  0
  7  8  1  0
  8  9  1  0
  9 10  1  0
  4 11  1  0
 11 12  1  0
 12 13  1  0
 13 14  1  0
 14 15  2  0
 15 16  1  0
 16 17  2  0
 17 18  1  0
 18 19  2  0
 18 20  1  0
 20 21  1  0
 21 22  1  0
 22 23  1  0
 13 24  2  0
 24 25  1  0
 25 26  1  0
 26  2  1  0
 10  5  1  0
 26 12  2  0
 19 14  1  0
 23 17  1  0
M  END
$$$$
