
     RDKit          3D

 26 30  0  0  0  0  0  0  0  0999 V2000
   14.3373   -6.6579    5.8515 O   0  0  0  0  0  0  0  0  0  0  0  0
   15.3277   -6.5365    6.5880 C   0  0  0  0  0  0  0  0  0  0  0  0
   15.7398   -7.4864    7.4946 C   0  0  0  0  0  0  0  0  0  0  0  0
   16.8669   -7.1700    8.2260 C   0  0  0  0  0  0  0  0  0  0  0  0
   17.3327   -8.1402    9.1895 N   0  0  0  0  0  0  0  0  0  0  0  0
   16.4573   -9.2327    9.5294 C   0  0  0  0  0  0  0  0  0  0  0  0
   17.3643  -10.4130    9.8848 C   0  0  0  0  0  0  0  0  0  0  0  0
   18.0999   -9.9975   10.9882 O   0  0  0  0  0  0  0  0  0  0  0  0
   19.0650   -9.0683   10.6511 C   0  0  0  0  0  0  0  0  0  0  0  0
   18.6165   -7.9870    9.7556 C   0  0  0  0  0  0  0  0  0  0  0  0
   17.4989   -6.0544    8.0733 O   0  0  0  0  0  0  0  0  0  0  0  0
   17.1629   -5.0841    7.2167 C   0  0  0  0  0  0  0  0  0  0  0  0
   17.7952   -3.8883    7.0163 C   0  0  0  0  0  0  0  0  0  0  0  0
   19.0226   -3.4474    7.7539 C   0  0  0  0  0  0  0  0  0  0  0  0
   19.2753   -3.8945    9.0286 C   0  0  0  0  0  0  0  0  0  0  0  0
   20.4242   -3.4809    9.7147 C   0  0  0  0  0  0  0  0  0  0  0  0
   21.3118   -2.6249    9.1242 C   0  0  0  0  0  0  0  0  0  0  0  0
   21.0713   -2.1671    7.8436 C   0  0  0  0  0  0  0  0  0  0  0  0
   19.9336   -2.5869    7.1856 C   0  0  0  0  0  0  0  0  0  0  0  0
   22.0005   -1.3021    7.2907 O   0  0  0  0  0  0  0  0  0  0  0  0
   22.7288   -0.3789    8.0821 C   0  0  0  0  0  0  0  0  0  0  0  0
   23.1051   -0.9622    9.4024 C   0  0  0  0  0  0  0  0  0  0  0  0
   22.4737   -2.1624    9.7256 O   0  0  0  0  0  0  0  0  0  0  0  0
   17.2529   -3.0671    6.0809 C   0  0  0  0  0  0  0  0  0  0  0  0
   15.9071   -3.9351    5.5016 S   0  0  0  0  0  0  0  0  0  0  0  0
   16.0590   -5.3378    6.4667 C   0  0  0  0  0  0  0  0  0  0  0  0
  1  2  2  0
  2  3  1  0
  3  4  2  0
  4  5  1  0
  5  6  1  0
  6  7  1  0
  7  8  1  0
  8  9  1  0
  9 10  1  0
  4 11  1  0
 11 12  1  0
 12 13  1  0
 13 14  1  0
 14 15  2  0
 15 16  1  0
 16 17  2  0
 17 18  1  0
 18 19  2  0
 18 20  1  0
 20 21  1  0
 21 22  1  0
 22 23  1  0
 13 24  2  0
 24 25  1  0
 25 26  1  0
 26  2  1  0
 10  5  1  0
 26 12  2  0
 19 14  1  0
 23 17  1  0
M  END
$$$$
