
     RDKit          3D

 26 30  0  0  0  0  0  0  0  0999 V2000
   14.1845   -6.8812    6.2174 O   0  0  0  0  0  0  0  0  0  0  0  0
   15.2186   -6.7430    6.8879 C   0  0  0  0  0  0  0  0  0  0  0  0
   15.7189   -7.6963    7.7451 C   0  0  0  0  0  0  0  0  0  0  0  0
   16.8833   -7.3590    8.4054 C   0  0  0  0  0  0  0  0  0  0  0  0
   17.4416   -8.3321    9.3154 N   0  0  0  0  0  0  0  0  0  0  0  0
   18.8046   -8.1541    9.7462 C   0  0  0  0  0  0  0  0  0  0  0  0
   18.8908   -8.7531   11.1519 C   0  0  0  0  0  0  0  0  0  0  0  0
   18.5840  -10.1001   11.0014 O   0  0  0  0  0  0  0  0  0  0  0  0
   17.2402  -10.3039   10.7541 C   0  0  0  0  0  0  0  0  0  0  0  0
   16.6394   -9.4097    9.7482 C   0  0  0  0  0  0  0  0  0  0  0  0
   17.4705   -6.2220    8.2333 O   0  0  0  0  0  0  0  0  0  0  0  0
   17.0488   -5.2469    7.4212 C   0  0  0  0  0  0  0  0  0  0  0  0
   17.6308   -4.0288    7.2032 C   0  0  0  0  0  0  0  0  0  0  0  0
   18.8919   -3.5641    7.8653 C   0  0  0  0  0  0  0  0  0  0  0  0
   19.1911   -3.9431    9.1520 C   0  0  0  0  0  0  0  0  0  0  0  0
   20.3714   -3.5075    9.7676 C   0  0  0  0  0  0  0  0  0  0  0  0
   21.2439   -2.6976    9.0952 C   0  0  0  0  0  0  0  0  0  0  0  0
   20.9567   -2.3084    7.8015 C   0  0  0  0  0  0  0  0  0  0  0  0
   19.7887   -2.7488    7.2139 C   0  0  0  0  0  0  0  0  0  0  0  0
   21.8724   -1.4880    7.1644 O   0  0  0  0  0  0  0  0  0  0  0  0
   22.6425   -0.5321    7.8731 C   0  0  0  0  0  0  0  0  0  0  0  0
   23.0655   -1.0462    9.2080 C   0  0  0  0  0  0  0  0  0  0  0  0
   22.4343   -2.2181    9.6229 O   0  0  0  0  0  0  0  0  0  0  0  0
   17.0024   -3.2076    6.3233 C   0  0  0  0  0  0  0  0  0  0  0  0
   15.6464   -4.1056    5.8182 S   0  0  0  0  0  0  0  0  0  0  0  0
   15.9045   -5.5205    6.7421 C   0  0  0  0  0  0  0  0  0  0  0  0
  1  2  2  0
  2  3  1  0
  3  4  2  0
  4  5  1  0
  5  6  1  0
  6  7  1  0
  7  8  1  0
  8  9  1  0
  9 10  1  0
  4 11  1  0
 11 12  1  0
 12 13  1  0
 13 14  1  0
 14 15  2  0
 15 16  1  0
 16 17  2  0
 17 18  1  0
 18 19  2  0
 18 20  1  0
 20 21  1  0
 21 22  1  0
 22 23  1  0
 13 24  2  0
 24 25  1  0
 25 26  1  0
 26  2  1  0
 10  5  1  0
 26 12  2  0
 19 14  1  0
 23 17  1  0
M  END
$$$$
