
     RDKit          3D

 26 30  0  0  0  0  0  0  0  0999 V2000
   14.2453   -6.5444    6.0320 O   0  0  0  0  0  0  0  0  0  0  0  0
   15.2683   -6.4330    6.7240 C   0  0  0  0  0  0  0  0  0  0  0  0
   15.7417   -7.4104    7.5694 C   0  0  0  0  0  0  0  0  0  0  0  0
   16.8976   -7.1012    8.2579 C   0  0  0  0  0  0  0  0  0  0  0  0
   17.4277   -8.1001    9.1566 N   0  0  0  0  0  0  0  0  0  0  0  0
   18.7811   -7.9421    9.6241 C   0  0  0  0  0  0  0  0  0  0  0  0
   18.8296   -8.5760   11.0162 C   0  0  0  0  0  0  0  0  0  0  0  0
   18.5181   -9.9169   10.8252 O   0  0  0  0  0  0  0  0  0  0  0  0
   17.1794  -10.1053   10.5409 C   0  0  0  0  0  0  0  0  0  0  0  0
   16.6086   -9.1826    9.5433 C   0  0  0  0  0  0  0  0  0  0  0  0
   17.5010   -5.9679    8.1211 O   0  0  0  0  0  0  0  0  0  0  0  0
   17.1057   -4.9706    7.3227 C   0  0  0  0  0  0  0  0  0  0  0  0
   17.7056   -3.7552    7.1417 C   0  0  0  0  0  0  0  0  0  0  0  0
   18.9597   -3.3200    7.8365 C   0  0  0  0  0  0  0  0  0  0  0  0
   19.2521   -3.7652    9.1034 C   0  0  0  0  0  0  0  0  0  0  0  0
   20.4258   -3.3569    9.7495 C   0  0  0  0  0  0  0  0  0  0  0  0
   21.2984   -2.5081    9.1272 C   0  0  0  0  0  0  0  0  0  0  0  0
   21.0181   -2.0522    7.8540 C   0  0  0  0  0  0  0  0  0  0  0  0
   19.8565   -2.4667    7.2356 C   0  0  0  0  0  0  0  0  0  0  0  0
   21.9336   -1.1946    7.2679 O   0  0  0  0  0  0  0  0  0  0  0  0
   22.6936   -0.2737    8.0318 C   0  0  0  0  0  0  0  0  0  0  0  0
   23.1102   -0.8558    9.3405 C   0  0  0  0  0  0  0  0  0  0  0  0
   22.4826   -2.0512    9.6881 O   0  0  0  0  0  0  0  0  0  0  0  0
   17.1031   -2.9079    6.2685 C   0  0  0  0  0  0  0  0  0  0  0  0
   15.7464   -3.7786    5.7196 S   0  0  0  0  0  0  0  0  0  0  0  0
   15.9710   -5.2159    6.6172 C   0  0  0  0  0  0  0  0  0  0  0  0
  1  2  2  0
  2  3  1  0
  3  4  2  0
  4  5  1  0
  5  6  1  0
  6  7  1  0
  7  8  1  0
  8  9  1  0
  9 10  1  0
  4 11  1  0
 11 12  1  0
 12 13  1  0
 13 14  1  0
 14 15  2  0
 15 16  1  0
 16 17  2  0
 17 18  1  0
 18 19  2  0
 18 20  1  0
 20 21  1  0
 21 22  1  0
 22 23  1  0
 13 24  2  0
 24 25  1  0
 25 26  1  0
 26  2  1  0
 10  5  1  0
 26 12  2  0
 19 14  1  0
 23 17  1  0
M  END
$$$$
