
     RDKit          3D

 26 30  0  0  0  0  0  0  0  0999 V2000
   14.0489   -6.6692    6.3274 O   0  0  0  0  0  0  0  0  0  0  0  0
   15.0788   -6.5461    7.0070 C   0  0  0  0  0  0  0  0  0  0  0  0
   15.5517   -7.5021    7.8768 C   0  0  0  0  0  0  0  0  0  0  0  0
   16.7160   -7.1824    8.5460 C   0  0  0  0  0  0  0  0  0  0  0  0
   17.2459   -8.1589    9.4692 N   0  0  0  0  0  0  0  0  0  0  0  0
   16.4042   -9.2672    9.8413 C   0  0  0  0  0  0  0  0  0  0  0  0
   17.3440  -10.4400   10.1305 C   0  0  0  0  0  0  0  0  0  0  0  0
   18.1337  -10.0291   11.1977 O   0  0  0  0  0  0  0  0  0  0  0  0
   19.0671   -9.0829   10.8212 C   0  0  0  0  0  0  0  0  0  0  0  0
   18.5568   -7.9961    9.9664 C   0  0  0  0  0  0  0  0  0  0  0  0
   17.3273   -6.0587    8.3707 O   0  0  0  0  0  0  0  0  0  0  0  0
   16.9331   -5.0821    7.5467 C   0  0  0  0  0  0  0  0  0  0  0  0
   17.5411   -3.8775    7.3248 C   0  0  0  0  0  0  0  0  0  0  0  0
   18.8047   -3.4325    7.9958 C   0  0  0  0  0  0  0  0  0  0  0  0
   19.0933   -3.8236    9.2813 C   0  0  0  0  0  0  0  0  0  0  0  0
   20.2759   -3.4064    9.9051 C   0  0  0  0  0  0  0  0  0  0  0  0
   21.1612   -2.6025    9.2421 C   0  0  0  0  0  0  0  0  0  0  0  0
   20.8847   -2.2013    7.9498 C   0  0  0  0  0  0  0  0  0  0  0  0
   19.7142   -2.6237    7.3540 C   0  0  0  0  0  0  0  0  0  0  0  0
   21.8130   -1.3877    7.3225 O   0  0  0  0  0  0  0  0  0  0  0  0
   22.5912   -0.4459    8.0411 C   0  0  0  0  0  0  0  0  0  0  0  0
   23.0019   -0.9739    9.3744 C   0  0  0  0  0  0  0  0  0  0  0  0
   22.3548   -2.1409    9.7784 O   0  0  0  0  0  0  0  0  0  0  0  0
   16.9378   -3.0513    6.4322 C   0  0  0  0  0  0  0  0  0  0  0  0
   15.5694   -3.9264    5.9208 S   0  0  0  0  0  0  0  0  0  0  0  0
   15.7903   -5.3385    6.8584 C   0  0  0  0  0  0  0  0  0  0  0  0
  1  2  2  0
  2  3  1  0
  3  4  2  0
  4  5  1  0
  5  6  1  0
  6  7  1  0
  7  8  1  0
  8  9  1  0
  9 10  1  0
  4 11  1  0
 11 12  1  0
 12 13  1  0
 13 14  1  0
 14 15  2  0
 15 16  1  0
 16 17  2  0
 17 18  1  0
 18 19  2  0
 18 20  1  0
 20 21  1  0
 21 22  1  0
 22 23  1  0
 13 24  2  0
 24 25  1  0
 25 26  1  0
 26  2  1  0
 10  5  1  0
 26 12  2  0
 19 14  1  0
 23 17  1  0
M  END
$$$$
