
     RDKit          3D

 26 30  0  0  0  0  0  0  0  0999 V2000
   14.3580   -6.6575    5.9638 O   0  0  0  0  0  0  0  0  0  0  0  0
   15.3533   -6.5258    6.6918 C   0  0  0  0  0  0  0  0  0  0  0  0
   15.7748   -7.4652    7.6049 C   0  0  0  0  0  0  0  0  0  0  0  0
   16.9062   -7.1381    8.3249 C   0  0  0  0  0  0  0  0  0  0  0  0
   17.3818   -8.0972    9.2947 N   0  0  0  0  0  0  0  0  0  0  0  0
   16.5017   -9.1734    9.6723 C   0  0  0  0  0  0  0  0  0  0  0  0
   17.4027  -10.3581   10.0284 C   0  0  0  0  0  0  0  0  0  0  0  0
   18.1669   -9.9325   11.1082 O   0  0  0  0  0  0  0  0  0  0  0  0
   19.1349   -9.0206   10.7343 C   0  0  0  0  0  0  0  0  0  0  0  0
   18.6793   -7.9495    9.8302 C   0  0  0  0  0  0  0  0  0  0  0  0
   17.5337   -6.0223    8.1564 O   0  0  0  0  0  0  0  0  0  0  0  0
   17.1886   -5.0617    7.2925 C   0  0  0  0  0  0  0  0  0  0  0  0
   17.8159   -3.8661    7.0755 C   0  0  0  0  0  0  0  0  0  0  0  0
   19.0472   -3.4142    7.7996 C   0  0  0  0  0  0  0  0  0  0  0  0
   19.3050   -3.8392    9.0809 C   0  0  0  0  0  0  0  0  0  0  0  0
   20.4576   -3.4154    9.7545 C   0  0  0  0  0  0  0  0  0  0  0  0
   21.3438   -2.5712    9.1451 C   0  0  0  0  0  0  0  0  0  0  0  0
   21.0982   -2.1356    7.8576 C   0  0  0  0  0  0  0  0  0  0  0  0
   19.9569   -2.5652    7.2122 C   0  0  0  0  0  0  0  0  0  0  0  0
   22.0261   -1.2820    7.2855 O   0  0  0  0  0  0  0  0  0  0  0  0
   22.7594   -0.3461    8.0571 C   0  0  0  0  0  0  0  0  0  0  0  0
   23.1408   -0.9066    9.3859 C   0  0  0  0  0  0  0  0  0  0  0  0
   22.5090   -2.1000    9.7329 O   0  0  0  0  0  0  0  0  0  0  0  0
   17.2643   -3.0560    6.1358 C   0  0  0  0  0  0  0  0  0  0  0  0
   15.9170   -3.9338    5.5751 S   0  0  0  0  0  0  0  0  0  0  0  0
   16.0801   -5.3262    6.5531 C   0  0  0  0  0  0  0  0  0  0  0  0
  1  2  2  0
  2  3  1  0
  3  4  2  0
  4  5  1  0
  5  6  1  0
  6  7  1  0
  7  8  1  0
  8  9  1  0
  9 10  1  0
  4 11  1  0
 11 12  1  0
 12 13  1  0
 13 14  1  0
 14 15  2  0
 15 16  1  0
 16 17  2  0
 17 18  1  0
 18 19  2  0
 18 20  1  0
 20 21  1  0
 21 22  1  0
 22 23  1  0
 13 24  2  0
 24 25  1  0
 25 26  1  0
 26  2  1  0
 10  5  1  0
 26 12  2  0
 19 14  1  0
 23 17  1  0
M  END
$$$$
