6YT6_PKE_holo_aligned_esmfold_protein
     RDKit          3D

 31 34  0  0  0  0  0  0  0  0999 V2000
    5.5688    3.6599  -18.7897 C   0  0  0  0  0  0  0  0  0  0  0  0
    4.5225    4.1728  -17.9050 N   0  0  0  0  0  0  0  0  0  0  0  0
    4.3499    5.5309  -17.8428 C   0  0  0  0  0  0  0  0  0  0  0  0
    5.1974    6.1593  -17.0229 N   0  0  0  0  0  0  0  0  0  0  0  0
    4.9124    7.4010  -16.6117 C   0  0  0  0  0  0  0  0  0  0  0  0
    3.7473    8.0522  -16.9885 C   0  0  0  0  0  0  0  0  0  0  0  0
    2.9254    7.4432  -17.9112 C   0  0  0  0  0  0  0  0  0  0  0  0
    3.2512    6.1821  -18.4154 C   0  0  0  0  0  0  0  0  0  0  0  0
    2.5242    5.6244  -19.6079 C   0  0  0  0  0  0  0  0  0  0  0  0
    1.0730    5.5420  -19.3611 N   0  0  0  0  0  0  0  0  0  0  0  0
    0.1715    6.0262  -20.2957 C   0  0  0  0  0  0  0  0  0  0  0  0
   -1.0504    6.5348  -19.8960 C   0  0  0  0  0  0  0  0  0  0  0  0
   -1.8047    7.2271  -20.8242 C   0  0  0  0  0  0  0  0  0  0  0  0
   -1.3692    7.3888  -22.0788 N   0  0  0  0  0  0  0  0  0  0  0  0
   -0.1934    6.8420  -22.4014 C   0  0  0  0  0  0  0  0  0  0  0  0
    0.1935    7.1005  -23.6933 N   0  0  0  0  0  0  0  0  0  0  0  0
    1.3261    6.6798  -24.3851 C   0  0  0  0  0  0  0  0  0  0  0  0
    2.5392    6.2745  -23.7847 C   0  0  0  0  0  0  0  0  0  0  0  0
    3.6367    5.8974  -24.5668 C   0  0  0  0  0  0  0  0  0  0  0  0
    3.5215    5.9089  -25.9530 C   0  0  0  0  0  0  0  0  0  0  0  0
    2.3301    6.2850  -26.5658 C   0  0  0  0  0  0  0  0  0  0  0  0
    1.2347    6.6800  -25.7893 C   0  0  0  0  0  0  0  0  0  0  0  0
    2.4413    6.1589  -28.0611 C   0  0  0  0  0  0  0  0  0  0  0  0
    3.8524    5.5663  -28.1407 C   0  0  0  0  0  0  0  0  0  0  0  0
    4.4034    5.0593  -29.1150 O   0  0  0  0  0  0  0  0  0  0  0  0
    4.4541    5.5536  -26.9075 N   0  0  0  0  0  0  0  0  0  0  0  0
    0.5667    6.1465  -21.5529 N   0  0  0  0  0  0  0  0  0  0  0  0
    4.5067    3.5149  -16.2919 S   0  0  0  0  0  6  0  0  0  0  0  0
    6.1415    3.7854  -15.5201 C   0  0  0  0  0  0  0  0  0  0  0  0
    3.4054    4.0959  -15.4889 O   0  0  0  0  0  0  0  0  0  0  0  0
    4.2235    2.0718  -16.3533 O   0  0  0  0  0  0  0  0  0  0  0  0
  1  2  1  0
  2  3  1  0
  3  4  2  0
  4  5  1  0
  5  6  2  0
  6  7  1  0
  7  8  2  0
  8  9  1  0
  9 10  1  0
 10 11  1  0
 11 12  2  0
 12 13  1  0
 13 14  2  0
 14 15  1  0
 15 16  1  0
 16 17  1  0
 17 18  2  0
 18 19  1  0
 19 20  2  0
 20 21  1  0
 21 22  2  0
 21 23  1  0
 23 24  1  0
 24 25  2  0
 24 26  1  0
 15 27  2  0
  2 28  1  0
 28 29  1  0
 28 30  2  0
 28 31  2  0
  8  3  1  0
 27 11  1  0
 22 17  1  0
 26 20  1  0
M  END
