
     RDKit          3D

 31 34  0  0  0  0  0  0  0  0999 V2000
    4.5323    4.4663  -20.0036 C   0  0  0  0  0  0  0  0  0  0  0  0
    4.3777    4.7298  -18.5714 N   0  0  0  0  0  0  0  0  0  0  0  0
    3.9048    5.9979  -18.1211 C   0  0  0  0  0  0  0  0  0  0  0  0
    4.8946    6.8901  -17.8326 N   0  0  0  0  0  0  0  0  0  0  0  0
    4.6357    8.1245  -17.3782 C   0  0  0  0  0  0  0  0  0  0  0  0
    3.3202    8.4773  -17.2065 C   0  0  0  0  0  0  0  0  0  0  0  0
    2.2960    7.5775  -17.4952 C   0  0  0  0  0  0  0  0  0  0  0  0
    2.5842    6.2974  -17.9665 C   0  0  0  0  0  0  0  0  0  0  0  0
    1.5667    5.2791  -18.2470 C   0  0  0  0  0  0  0  0  0  0  0  0
    1.2092    5.1042  -19.6170 N   0  0  0  0  0  0  0  0  0  0  0  0
    0.3352    6.0263  -20.2410 C   0  0  0  0  0  0  0  0  0  0  0  0
   -0.6886    6.6837  -19.5965 C   0  0  0  0  0  0  0  0  0  0  0  0
   -1.5206    7.5561  -20.2805 C   0  0  0  0  0  0  0  0  0  0  0  0
   -1.3222    7.7602  -21.5908 N   0  0  0  0  0  0  0  0  0  0  0  0
   -0.3251    7.1211  -22.2263 C   0  0  0  0  0  0  0  0  0  0  0  0
   -0.2426    7.3942  -23.6390 N   0  0  0  0  0  0  0  0  0  0  0  0
    0.8985    6.8998  -24.3229 C   0  0  0  0  0  0  0  0  0  0  0  0
    0.8945    6.9013  -25.7029 C   0  0  0  0  0  0  0  0  0  0  0  0
    1.9619    6.4557  -26.4276 C   0  0  0  0  0  0  0  0  0  0  0  0
    3.0913    5.9821  -25.7738 C   0  0  0  0  0  0  0  0  0  0  0  0
    3.1244    5.9687  -24.4037 C   0  0  0  0  0  0  0  0  0  0  0  0
    2.0361    6.4245  -23.6865 C   0  0  0  0  0  0  0  0  0  0  0  0
    4.4523    5.4196  -23.9718 C   0  0  0  0  0  0  0  0  0  0  0  0
    5.1455    5.1055  -25.2356 C   0  0  0  0  0  0  0  0  0  0  0  0
    6.3105    4.5958  -25.2868 O   0  0  0  0  0  0  0  0  0  0  0  0
    4.2961    5.4683  -26.3116 N   0  0  0  0  0  0  0  0  0  0  0  0
    0.4672    6.2915  -21.5730 N   0  0  0  0  0  0  0  0  0  0  0  0
    4.7806    3.4744  -17.4749 S   0  0  0  0  0  6  0  0  0  0  0  0
    6.4390    3.7813  -16.8754 C   0  0  0  0  0  0  0  0  0  0  0  0
    3.8242    3.5493  -16.3016 O   0  0  0  0  0  0  0  0  0  0  0  0
    4.7051    2.1460  -18.1275 O   0  0  0  0  0  0  0  0  0  0  0  0
  1  2  1  0
  2  3  1  0
  3  4  2  0
  4  5  1  0
  5  6  2  0
  6  7  1  0
  7  8  2  0
  8  9  1  0
  9 10  1  0
 10 11  1  0
 11 12  2  0
 12 13  1  0
 13 14  2  0
 14 15  1  0
 15 16  1  0
 16 17  1  0
 17 18  2  0
 18 19  1  0
 19 20  2  0
 20 21  1  0
 21 22  2  0
 21 23  1  0
 23 24  1  0
 24 25  2  0
 24 26  1  0
 15 27  2  0
  2 28  1  0
 28 29  1  0
 28 30  2  0
 28 31  2  0
  8  3  1  0
 27 11  1  0
 22 17  1  0
 26 20  1  0
M  END
$$$$
