
     RDKit          3D

 31 34  0  0  0  0  0  0  0  0999 V2000
   39.2142    3.8785    6.3708 C   0  0  0  0  0  0  0  0  0  0  0  0
   39.3244    2.7007    7.2341 N   0  0  0  0  0  0  0  0  0  0  0  0
   40.3661    1.7497    7.0223 C   0  0  0  0  0  0  0  0  0  0  0  0
   40.3453    1.1672    5.7897 N   0  0  0  0  0  0  0  0  0  0  0  0
   41.2372    0.2360    5.4227 C   0  0  0  0  0  0  0  0  0  0  0  0
   42.1943   -0.1253    6.3380 C   0  0  0  0  0  0  0  0  0  0  0  0
   42.2296    0.4588    7.6027 C   0  0  0  0  0  0  0  0  0  0  0  0
   41.2932    1.4255    7.9673 C   0  0  0  0  0  0  0  0  0  0  0  0
   41.2348    2.0510    9.2924 C   0  0  0  0  0  0  0  0  0  0  0  0
   42.4874    2.3723    9.8949 N   0  0  0  0  0  0  0  0  0  0  0  0
   43.0018    1.5559   10.9306 C   0  0  0  0  0  0  0  0  0  0  0  0
   42.6155    1.6397   12.2495 C   0  0  0  0  0  0  0  0  0  0  0  0
   43.1825    0.8216   13.2140 C   0  0  0  0  0  0  0  0  0  0  0  0
   44.1220   -0.0643   12.8528 N   0  0  0  0  0  0  0  0  0  0  0  0
   44.5043   -0.1508   11.5672 C   0  0  0  0  0  0  0  0  0  0  0  0
   45.5488   -1.1116   11.3158 N   0  0  0  0  0  0  0  0  0  0  0  0
   45.8243   -1.4200    9.9582 C   0  0  0  0  0  0  0  0  0  0  0  0
   47.0338   -2.0064    9.6456 C   0  0  0  0  0  0  0  0  0  0  0  0
   47.3613   -2.3450    8.3645 C   0  0  0  0  0  0  0  0  0  0  0  0
   46.4647   -2.0975    7.3339 C   0  0  0  0  0  0  0  0  0  0  0  0
   45.2555   -1.5163    7.6140 C   0  0  0  0  0  0  0  0  0  0  0  0
   44.9401   -1.1816    8.9159 C   0  0  0  0  0  0  0  0  0  0  0  0
   44.4940   -1.3748    6.3289 C   0  0  0  0  0  0  0  0  0  0  0  0
   45.4079   -1.9115    5.3026 C   0  0  0  0  0  0  0  0  0  0  0  0
   45.1240   -1.9473    4.0625 O   0  0  0  0  0  0  0  0  0  0  0  0
   46.5920   -2.3516    5.9468 N   0  0  0  0  0  0  0  0  0  0  0  0
   43.9623    0.6283   10.6496 N   0  0  0  0  0  0  0  0  0  0  0  0
   38.1710    2.5129    8.4890 S   0  0  0  0  0  6  0  0  0  0  0  0
   37.3069    0.9699    8.2133 C   0  0  0  0  0  0  0  0  0  0  0  0
   38.9180    2.4168    9.8042 O   0  0  0  0  0  0  0  0  0  0  0  0
   37.2136    3.6438    8.5126 O   0  0  0  0  0  0  0  0  0  0  0  0
  1  2  1  0
  2  3  1  0
  3  4  2  0
  4  5  1  0
  5  6  2  0
  6  7  1  0
  7  8  2  0
  8  9  1  0
  9 10  1  0
 10 11  1  0
 11 12  2  0
 12 13  1  0
 13 14  2  0
 14 15  1  0
 15 16  1  0
 16 17  1  0
 17 18  2  0
 18 19  1  0
 19 20  2  0
 20 21  1  0
 21 22  2  0
 21 23  1  0
 23 24  1  0
 24 25  2  0
 24 26  1  0
 15 27  2  0
  2 28  1  0
 28 29  1  0
 28 30  2  0
 28 31  2  0
  8  3  1  0
 27 11  1  0
 22 17  1  0
 26 20  1  0
M  END
$$$$
