
     RDKit          3D

 31 34  0  0  0  0  0  0  0  0999 V2000
    2.8457    6.9731  -16.2582 C   0  0  0  0  0  0  0  0  0  0  0  0
    3.6671    6.7395  -17.4480 N   0  0  0  0  0  0  0  0  0  0  0  0
    3.9218    5.4093  -17.8954 C   0  0  0  0  0  0  0  0  0  0  0  0
    4.8633    4.7474  -17.1644 N   0  0  0  0  0  0  0  0  0  0  0  0
    5.2436    3.4946  -17.4531 C   0  0  0  0  0  0  0  0  0  0  0  0
    4.6487    2.8797  -18.5266 C   0  0  0  0  0  0  0  0  0  0  0  0
    3.6855    3.5419  -19.2854 C   0  0  0  0  0  0  0  0  0  0  0  0
    3.3028    4.8451  -18.9706 C   0  0  0  0  0  0  0  0  0  0  0  0
    2.3335    5.6247  -19.7473 C   0  0  0  0  0  0  0  0  0  0  0  0
    0.9876    5.1518  -19.7348 N   0  0  0  0  0  0  0  0  0  0  0  0
   -0.0195    5.8724  -20.4203 C   0  0  0  0  0  0  0  0  0  0  0  0
   -1.2686    6.1400  -19.9068 C   0  0  0  0  0  0  0  0  0  0  0  0
   -2.2133    6.8321  -20.6482 C   0  0  0  0  0  0  0  0  0  0  0  0
   -1.9020    7.2458  -21.8851 N   0  0  0  0  0  0  0  0  0  0  0  0
   -0.6847    6.9872  -22.3928 C   0  0  0  0  0  0  0  0  0  0  0  0
   -0.4887    7.4481  -23.7443 N   0  0  0  0  0  0  0  0  0  0  0  0
    0.6423    6.9432  -24.4372 C   0  0  0  0  0  0  0  0  0  0  0  0
    0.5629    6.7848  -25.8057 C   0  0  0  0  0  0  0  0  0  0  0  0
    1.6152    6.3194  -26.5401 C   0  0  0  0  0  0  0  0  0  0  0  0
    2.8063    5.9893  -25.9079 C   0  0  0  0  0  0  0  0  0  0  0  0
    2.9148    6.1363  -24.5496 C   0  0  0  0  0  0  0  0  0  0  0  0
    1.8407    6.6098  -23.8226 C   0  0  0  0  0  0  0  0  0  0  0  0
    4.2964    5.7168  -24.1412 C   0  0  0  0  0  0  0  0  0  0  0  0
    4.9380    5.2983  -25.4020 C   0  0  0  0  0  0  0  0  0  0  0  0
    6.1284    4.8527  -25.4671 O   0  0  0  0  0  0  0  0  0  0  0  0
    4.0100    5.4856  -26.4577 N   0  0  0  0  0  0  0  0  0  0  0  0
    0.2144    6.3290  -21.6848 N   0  0  0  0  0  0  0  0  0  0  0  0
    4.3002    8.1056  -18.2687 S   0  0  0  0  0  6  0  0  0  0  0  0
    6.0855    8.0267  -18.1688 C   0  0  0  0  0  0  0  0  0  0  0  0
    3.8958    8.0082  -19.7261 O   0  0  0  0  0  0  0  0  0  0  0  0
    3.8050    9.3684  -17.6716 O   0  0  0  0  0  0  0  0  0  0  0  0
  1  2  1  0
  2  3  1  0
  3  4  2  0
  4  5  1  0
  5  6  2  0
  6  7  1  0
  7  8  2  0
  8  9  1  0
  9 10  1  0
 10 11  1  0
 11 12  2  0
 12 13  1  0
 13 14  2  0
 14 15  1  0
 15 16  1  0
 16 17  1  0
 17 18  2  0
 18 19  1  0
 19 20  2  0
 20 21  1  0
 21 22  2  0
 21 23  1  0
 23 24  1  0
 24 25  2  0
 24 26  1  0
 15 27  2  0
  2 28  1  0
 28 29  1  0
 28 30  2  0
 28 31  2  0
  8  3  1  0
 27 11  1  0
 22 17  1  0
 26 20  1  0
M  END
$$$$
