
     RDKit          3D

 31 34  0  0  0  0  0  0  0  0999 V2000
    5.5261    4.0723  -19.4972 C   0  0  0  0  0  0  0  0  0  0  0  0
    4.7539    4.4460  -18.3102 N   0  0  0  0  0  0  0  0  0  0  0  0
    4.2262    5.7649  -18.1823 C   0  0  0  0  0  0  0  0  0  0  0  0
    4.9541    6.5784  -17.3655 N   0  0  0  0  0  0  0  0  0  0  0  0
    4.5962    7.8456  -17.1134 C   0  0  0  0  0  0  0  0  0  0  0  0
    3.4534    8.3157  -17.7112 C   0  0  0  0  0  0  0  0  0  0  0  0
    2.6967    7.4976  -18.5479 C   0  0  0  0  0  0  0  0  0  0  0  0
    3.0841    6.1818  -18.7982 C   0  0  0  0  0  0  0  0  0  0  0  0
    2.3175    5.2455  -19.6267 C   0  0  0  0  0  0  0  0  0  0  0  0
    0.9130    5.1902  -19.3826 N   0  0  0  0  0  0  0  0  0  0  0  0
    0.0443    6.0804  -20.0579 C   0  0  0  0  0  0  0  0  0  0  0  0
   -0.9954    6.7551  -19.4583 C   0  0  0  0  0  0  0  0  0  0  0  0
   -1.8208    7.5936  -20.1909 C   0  0  0  0  0  0  0  0  0  0  0  0
   -1.6001    7.7474  -21.5045 N   0  0  0  0  0  0  0  0  0  0  0  0
   -0.5875    7.0912  -22.0964 C   0  0  0  0  0  0  0  0  0  0  0  0
   -0.4813    7.3090  -23.5172 N   0  0  0  0  0  0  0  0  0  0  0  0
    0.7202    6.8866  -24.1434 C   0  0  0  0  0  0  0  0  0  0  0  0
    0.7615    6.8256  -25.5214 C   0  0  0  0  0  0  0  0  0  0  0  0
    1.8869    6.4434  -26.1929 C   0  0  0  0  0  0  0  0  0  0  0  0
    3.0308    6.1009  -25.4849 C   0  0  0  0  0  0  0  0  0  0  0  0
    3.0198    6.1522  -24.1154 C   0  0  0  0  0  0  0  0  0  0  0  0
    1.8731    6.5423  -23.4525 C   0  0  0  0  0  0  0  0  0  0  0  0
    4.3752    5.7420  -23.6195 C   0  0  0  0  0  0  0  0  0  0  0  0
    5.1342    5.4335  -24.8463 C   0  0  0  0  0  0  0  0  0  0  0  0
    6.3401    5.0264  -24.8395 O   0  0  0  0  0  0  0  0  0  0  0  0
    4.2926    5.6714  -25.9626 N   0  0  0  0  0  0  0  0  0  0  0  0
    0.1985    6.2939  -21.3969 N   0  0  0  0  0  0  0  0  0  0  0  0
    4.5130    3.2551  -17.1001 S   0  0  0  0  0  6  0  0  0  0  0  0
    5.7163    3.5376  -15.8055 C   0  0  0  0  0  0  0  0  0  0  0  0
    3.1270    3.4489  -16.5184 O   0  0  0  0  0  0  0  0  0  0  0  0
    4.6616    1.8885  -17.6538 O   0  0  0  0  0  0  0  0  0  0  0  0
  1  2  1  0
  2  3  1  0
  3  4  2  0
  4  5  1  0
  5  6  2  0
  6  7  1  0
  7  8  2  0
  8  9  1  0
  9 10  1  0
 10 11  1  0
 11 12  2  0
 12 13  1  0
 13 14  2  0
 14 15  1  0
 15 16  1  0
 16 17  1  0
 17 18  2  0
 18 19  1  0
 19 20  2  0
 20 21  1  0
 21 22  2  0
 21 23  1  0
 23 24  1  0
 24 25  2  0
 24 26  1  0
 15 27  2  0
  2 28  1  0
 28 29  1  0
 28 30  2  0
 28 31  2  0
  8  3  1  0
 27 11  1  0
 22 17  1  0
 26 20  1  0
M  END
$$$$
