
     RDKit          3D

 31 34  0  0  0  0  0  0  0  0999 V2000
   40.7737    2.3016    5.6944 C   0  0  0  0  0  0  0  0  0  0  0  0
   39.9650    2.8532    6.7837 N   0  0  0  0  0  0  0  0  0  0  0  0
   39.4768    2.0015    7.8184 C   0  0  0  0  0  0  0  0  0  0  0  0
   38.1629    1.6624    7.6858 N   0  0  0  0  0  0  0  0  0  0  0  0
   37.5308    0.8845    8.5763 C   0  0  0  0  0  0  0  0  0  0  0  0
   38.2545    0.4267    9.6492 C   0  0  0  0  0  0  0  0  0  0  0  0
   39.5979    0.7646    9.8010 C   0  0  0  0  0  0  0  0  0  0  0  0
   40.2387    1.5753    8.8650 C   0  0  0  0  0  0  0  0  0  0  0  0
   41.6336    2.0135    8.9789 C   0  0  0  0  0  0  0  0  0  0  0  0
   42.0415    2.4961   10.2580 N   0  0  0  0  0  0  0  0  0  0  0  0
   42.5378    1.5921   11.2274 C   0  0  0  0  0  0  0  0  0  0  0  0
   41.9875    1.4145   12.4770 C   0  0  0  0  0  0  0  0  0  0  0  0
   42.5444    0.5265   13.3839 C   0  0  0  0  0  0  0  0  0  0  0  0
   43.6365   -0.1688   13.0350 N   0  0  0  0  0  0  0  0  0  0  0  0
   44.1792    0.0002   11.8171 C   0  0  0  0  0  0  0  0  0  0  0  0
   45.3719   -0.7734   11.5797 N   0  0  0  0  0  0  0  0  0  0  0  0
   45.6563   -1.1178   10.2326 C   0  0  0  0  0  0  0  0  0  0  0  0
   46.8308   -1.7870    9.9550 C   0  0  0  0  0  0  0  0  0  0  0  0
   47.1634   -2.1639    8.6860 C   0  0  0  0  0  0  0  0  0  0  0  0
   46.3081   -1.8718    7.6322 C   0  0  0  0  0  0  0  0  0  0  0  0
   45.1343   -1.2082    7.8773 C   0  0  0  0  0  0  0  0  0  0  0  0
   44.8131   -0.8357    9.1675 C   0  0  0  0  0  0  0  0  0  0  0  0
   44.4125   -1.0343    6.5734 C   0  0  0  0  0  0  0  0  0  0  0  0
   45.3113   -1.6441    5.5750 C   0  0  0  0  0  0  0  0  0  0  0  0
   45.0531   -1.6779    4.3292 O   0  0  0  0  0  0  0  0  0  0  0  0
   46.4491   -2.1526    6.2516 N   0  0  0  0  0  0  0  0  0  0  0  0
   43.6468    0.8455   10.9540 N   0  0  0  0  0  0  0  0  0  0  0  0
   39.6338    4.5356    6.7667 S   0  0  0  0  0  6  0  0  0  0  0  0
   41.1488    5.3970    7.1747 C   0  0  0  0  0  0  0  0  0  0  0  0
   39.2264    4.9209    5.3586 O   0  0  0  0  0  0  0  0  0  0  0  0
   38.5659    4.8829    7.7338 O   0  0  0  0  0  0  0  0  0  0  0  0
  1  2  1  0
  2  3  1  0
  3  4  2  0
  4  5  1  0
  5  6  2  0
  6  7  1  0
  7  8  2  0
  8  9  1  0
  9 10  1  0
 10 11  1  0
 11 12  2  0
 12 13  1  0
 13 14  2  0
 14 15  1  0
 15 16  1  0
 16 17  1  0
 17 18  2  0
 18 19  1  0
 19 20  2  0
 20 21  1  0
 21 22  2  0
 21 23  1  0
 23 24  1  0
 24 25  2  0
 24 26  1  0
 15 27  2  0
  2 28  1  0
 28 29  1  0
 28 30  2  0
 28 31  2  0
  8  3  1  0
 27 11  1  0
 22 17  1  0
 26 20  1  0
M  END
$$$$
