
     RDKit          3D

 31 34  0  0  0  0  0  0  0  0999 V2000
   41.3963    1.5420    5.8273 C   0  0  0  0  0  0  0  0  0  0  0  0
   40.3483    2.2653    6.5506 N   0  0  0  0  0  0  0  0  0  0  0  0
   39.7446    1.6888    7.7072 C   0  0  0  0  0  0  0  0  0  0  0  0
   38.4548    1.2884    7.5202 N   0  0  0  0  0  0  0  0  0  0  0  0
   37.7249    0.7425    8.5034 C   0  0  0  0  0  0  0  0  0  0  0  0
   38.3206    0.5925    9.7311 C   0  0  0  0  0  0  0  0  0  0  0  0
   39.6375    0.9974    9.9401 C   0  0  0  0  0  0  0  0  0  0  0  0
   40.3814    1.5638    8.9057 C   0  0  0  0  0  0  0  0  0  0  0  0
   41.7537    2.0577    9.0586 C   0  0  0  0  0  0  0  0  0  0  0  0
   42.1086    2.5468   10.3509 N   0  0  0  0  0  0  0  0  0  0  0  0
   42.7011    1.6757   11.2963 C   0  0  0  0  0  0  0  0  0  0  0  0
   42.2762    1.5388   12.5987 C   0  0  0  0  0  0  0  0  0  0  0  0
   42.9227    0.6818   13.4755 C   0  0  0  0  0  0  0  0  0  0  0  0
   43.9786   -0.0234   13.0445 N   0  0  0  0  0  0  0  0  0  0  0  0
   44.3991    0.1060   11.7746 C   0  0  0  0  0  0  0  0  0  0  0  0
   45.5663   -0.6736   11.4473 N   0  0  0  0  0  0  0  0  0  0  0  0
   45.6972   -1.0988   10.0996 C   0  0  0  0  0  0  0  0  0  0  0  0
   46.8341   -1.7890    9.7314 C   0  0  0  0  0  0  0  0  0  0  0  0
   47.0219   -2.2422    8.4576 C   0  0  0  0  0  0  0  0  0  0  0  0
   46.0523   -2.0091    7.4917 C   0  0  0  0  0  0  0  0  0  0  0  0
   44.9124   -1.3266    7.8280 C   0  0  0  0  0  0  0  0  0  0  0  0
   44.7385   -0.8765    9.1217 C   0  0  0  0  0  0  0  0  0  0  0  0
   44.0474   -1.2270    6.6060 C   0  0  0  0  0  0  0  0  0  0  0  0
   44.8287   -1.8993    5.5505 C   0  0  0  0  0  0  0  0  0  0  0  0
   44.4314   -2.0058    4.3461 O   0  0  0  0  0  0  0  0  0  0  0  0
   46.0367   -2.3721    6.1232 N   0  0  0  0  0  0  0  0  0  0  0  0
   43.7814    0.9218   10.9405 N   0  0  0  0  0  0  0  0  0  0  0  0
   39.8831    3.8074    5.9622 S   0  0  0  0  0  6  0  0  0  0  0  0
   38.4331    3.5883    4.9361 C   0  0  0  0  0  0  0  0  0  0  0  0
   39.5054    4.6699    7.1498 O   0  0  0  0  0  0  0  0  0  0  0  0
   40.9757    4.4378    5.1843 O   0  0  0  0  0  0  0  0  0  0  0  0
  1  2  1  0
  2  3  1  0
  3  4  2  0
  4  5  1  0
  5  6  2  0
  6  7  1  0
  7  8  2  0
  8  9  1  0
  9 10  1  0
 10 11  1  0
 11 12  2  0
 12 13  1  0
 13 14  2  0
 14 15  1  0
 15 16  1  0
 16 17  1  0
 17 18  2  0
 18 19  1  0
 19 20  2  0
 20 21  1  0
 21 22  2  0
 21 23  1  0
 23 24  1  0
 24 25  2  0
 24 26  1  0
 15 27  2  0
  2 28  1  0
 28 29  1  0
 28 30  2  0
 28 31  2  0
  8  3  1  0
 27 11  1  0
 22 17  1  0
 26 20  1  0
M  END
$$$$
