
     RDKit          3D

 31 34  0  0  0  0  0  0  0  0999 V2000
   41.4558    1.1578    6.1084 C   0  0  0  0  0  0  0  0  0  0  0  0
   40.4183    2.0094    6.6941 N   0  0  0  0  0  0  0  0  0  0  0  0
   39.7542    1.6117    7.8922 C   0  0  0  0  0  0  0  0  0  0  0  0
   38.4477    1.2644    7.7148 N   0  0  0  0  0  0  0  0  0  0  0  0
   37.6635    0.8832    8.7332 C   0  0  0  0  0  0  0  0  0  0  0  0
   38.2198    0.8498    9.9877 C   0  0  0  0  0  0  0  0  0  0  0  0
   39.5531    1.2028   10.1873 C   0  0  0  0  0  0  0  0  0  0  0  0
   40.3536    1.5973    9.1161 C   0  0  0  0  0  0  0  0  0  0  0  0
   41.7488    2.0286    9.2510 C   0  0  0  0  0  0  0  0  0  0  0  0
   42.1194    2.5825   10.5124 N   0  0  0  0  0  0  0  0  0  0  0  0
   42.8150    1.7877   11.4547 C   0  0  0  0  0  0  0  0  0  0  0  0
   42.9769    2.1193   12.7811 C   0  0  0  0  0  0  0  0  0  0  0  0
   43.6931    1.3010   13.6405 C   0  0  0  0  0  0  0  0  0  0  0  0
   44.2357    0.1693   13.1687 N   0  0  0  0  0  0  0  0  0  0  0  0
   44.0822   -0.1601   11.8747 C   0  0  0  0  0  0  0  0  0  0  0  0
   44.7465   -1.3778   11.4833 N   0  0  0  0  0  0  0  0  0  0  0  0
   45.1571   -1.4783   10.1284 C   0  0  0  0  0  0  0  0  0  0  0  0
   46.4461   -1.8893    9.8568 C   0  0  0  0  0  0  0  0  0  0  0  0
   46.9059   -2.0240    8.5787 C   0  0  0  0  0  0  0  0  0  0  0  0
   46.0667   -1.7414    7.5095 C   0  0  0  0  0  0  0  0  0  0  0  0
   44.7810   -1.3313    7.7483 C   0  0  0  0  0  0  0  0  0  0  0  0
   44.3322   -1.2019    9.0476 C   0  0  0  0  0  0  0  0  0  0  0  0
   44.1071   -1.1064    6.4267 C   0  0  0  0  0  0  0  0  0  0  0  0
   45.1513   -1.4075    5.4290 C   0  0  0  0  0  0  0  0  0  0  0  0
   44.9675   -1.3130    4.1732 O   0  0  0  0  0  0  0  0  0  0  0  0
   46.3265   -1.8001    6.1188 N   0  0  0  0  0  0  0  0  0  0  0  0
   43.3987    0.6198   11.0578 N   0  0  0  0  0  0  0  0  0  0  0  0
   40.0395    3.4792    5.8963 S   0  0  0  0  0  6  0  0  0  0  0  0
   38.6274    3.1806    4.8378 C   0  0  0  0  0  0  0  0  0  0  0  0
   39.6451    4.4972    6.9475 O   0  0  0  0  0  0  0  0  0  0  0  0
   41.1883    3.9692    5.0985 O   0  0  0  0  0  0  0  0  0  0  0  0
  1  2  1  0
  2  3  1  0
  3  4  2  0
  4  5  1  0
  5  6  2  0
  6  7  1  0
  7  8  2  0
  8  9  1  0
  9 10  1  0
 10 11  1  0
 11 12  2  0
 12 13  1  0
 13 14  2  0
 14 15  1  0
 15 16  1  0
 16 17  1  0
 17 18  2  0
 18 19  1  0
 19 20  2  0
 20 21  1  0
 21 22  2  0
 21 23  1  0
 23 24  1  0
 24 25  2  0
 24 26  1  0
 15 27  2  0
  2 28  1  0
 28 29  1  0
 28 30  2  0
 28 31  2  0
  8  3  1  0
 27 11  1  0
 22 17  1  0
 26 20  1  0
M  END
$$$$
