
     RDKit          3D

 31 34  0  0  0  0  0  0  0  0999 V2000
   38.7681    4.1146    8.3328 C   0  0  0  0  0  0  0  0  0  0  0  0
   38.8282    2.6515    8.3086 N   0  0  0  0  0  0  0  0  0  0  0  0
   39.9647    1.9881    7.7585 C   0  0  0  0  0  0  0  0  0  0  0  0
   39.7526    1.4544    6.5220 N   0  0  0  0  0  0  0  0  0  0  0  0
   40.7033    0.7785    5.8612 C   0  0  0  0  0  0  0  0  0  0  0  0
   41.9236    0.6333    6.4728 C   0  0  0  0  0  0  0  0  0  0  0  0
   42.1574    1.1712    7.7370 C   0  0  0  0  0  0  0  0  0  0  0  0
   41.1563    1.8709    8.4096 C   0  0  0  0  0  0  0  0  0  0  0  0
   41.3087    2.4244    9.7591 C   0  0  0  0  0  0  0  0  0  0  0  0
   42.6465    2.6285   10.2106 N   0  0  0  0  0  0  0  0  0  0  0  0
   43.1884    1.7888   11.2129 C   0  0  0  0  0  0  0  0  0  0  0  0
   42.9464    1.9327   12.5607 C   0  0  0  0  0  0  0  0  0  0  0  0
   43.5331    1.0850   13.4871 C   0  0  0  0  0  0  0  0  0  0  0  0
   44.3490    0.1104   13.0599 N   0  0  0  0  0  0  0  0  0  0  0  0
   44.5902   -0.0352   11.7457 C   0  0  0  0  0  0  0  0  0  0  0  0
   45.5146   -1.0918   11.4195 N   0  0  0  0  0  0  0  0  0  0  0  0
   45.7035   -1.3771   10.0422 C   0  0  0  0  0  0  0  0  0  0  0  0
   44.7695   -0.9157    9.1371 C   0  0  0  0  0  0  0  0  0  0  0  0
   44.8934   -1.1382    7.7961 C   0  0  0  0  0  0  0  0  0  0  0  0
   45.9831   -1.8491    7.3118 C   0  0  0  0  0  0  0  0  0  0  0  0
   46.9272   -2.3197    8.1868 C   0  0  0  0  0  0  0  0  0  0  0  0
   46.7866   -2.0841    9.5401 C   0  0  0  0  0  0  0  0  0  0  0  0
   47.9830   -3.0361    7.3973 C   0  0  0  0  0  0  0  0  0  0  0  0
   47.5213   -2.9396    5.9995 C   0  0  0  0  0  0  0  0  0  0  0  0
   48.1498   -3.4511    5.0180 O   0  0  0  0  0  0  0  0  0  0  0  0
   46.3092   -2.2040    5.9804 N   0  0  0  0  0  0  0  0  0  0  0  0
   44.0296    0.7723   10.8646 N   0  0  0  0  0  0  0  0  0  0  0  0
   37.5004    1.7816    8.9572 S   0  0  0  0  0  6  0  0  0  0  0  0
   38.1509    0.3729    9.8495 C   0  0  0  0  0  0  0  0  0  0  0  0
   36.7822    2.6835    9.9409 O   0  0  0  0  0  0  0  0  0  0  0  0
   36.5773    1.3339    7.8877 O   0  0  0  0  0  0  0  0  0  0  0  0
  1  2  1  0
  2  3  1  0
  3  4  2  0
  4  5  1  0
  5  6  2  0
  6  7  1  0
  7  8  2  0
  8  9  1  0
  9 10  1  0
 10 11  1  0
 11 12  2  0
 12 13  1  0
 13 14  2  0
 14 15  1  0
 15 16  1  0
 16 17  1  0
 17 18  2  0
 18 19  1  0
 19 20  2  0
 20 21  1  0
 21 22  2  0
 21 23  1  0
 23 24  1  0
 24 25  2  0
 24 26  1  0
 15 27  2  0
  2 28  1  0
 28 29  1  0
 28 30  2  0
 28 31  2  0
  8  3  1  0
 27 11  1  0
 22 17  1  0
 26 20  1  0
M  END
$$$$
