
     RDKit          3D

 31 34  0  0  0  0  0  0  0  0999 V2000
   39.0885    3.9034    9.8892 C   0  0  0  0  0  0  0  0  0  0  0  0
   38.9725    2.7313    9.0189 N   0  0  0  0  0  0  0  0  0  0  0  0
   39.6390    2.7037    7.7582 C   0  0  0  0  0  0  0  0  0  0  0  0
   38.9837    3.3736    6.7679 N   0  0  0  0  0  0  0  0  0  0  0  0
   39.4534    3.4364    5.5138 C   0  0  0  0  0  0  0  0  0  0  0  0
   40.6372    2.7960    5.2440 C   0  0  0  0  0  0  0  0  0  0  0  0
   41.3196    2.1055    6.2438 C   0  0  0  0  0  0  0  0  0  0  0  0
   40.8156    2.0504    7.5427 C   0  0  0  0  0  0  0  0  0  0  0  0
   41.4486    1.3061    8.6363 C   0  0  0  0  0  0  0  0  0  0  0  0
   42.3942    2.0258    9.4256 N   0  0  0  0  0  0  0  0  0  0  0  0
   42.9656    1.4184   10.5694 C   0  0  0  0  0  0  0  0  0  0  0  0
   42.6525    1.7575   11.8665 C   0  0  0  0  0  0  0  0  0  0  0  0
   43.2725    1.1342   12.9381 C   0  0  0  0  0  0  0  0  0  0  0  0
   44.1916    0.1864   12.7035 N   0  0  0  0  0  0  0  0  0  0  0  0
   44.5026   -0.1488   11.4396 C   0  0  0  0  0  0  0  0  0  0  0  0
   45.5326   -1.1500   11.3213 N   0  0  0  0  0  0  0  0  0  0  0  0
   45.9244   -1.5159   10.0072 C   0  0  0  0  0  0  0  0  0  0  0  0
   47.0195   -2.3406    9.8492 C   0  0  0  0  0  0  0  0  0  0  0  0
   47.4449   -2.7464    8.6173 C   0  0  0  0  0  0  0  0  0  0  0  0
   46.7694   -2.3250    7.4800 C   0  0  0  0  0  0  0  0  0  0  0  0
   45.6781   -1.5056    7.6057 C   0  0  0  0  0  0  0  0  0  0  0  0
   45.2608   -1.1060    8.8597 C   0  0  0  0  0  0  0  0  0  0  0  0
   45.1472   -1.2171    6.2322 C   0  0  0  0  0  0  0  0  0  0  0  0
   46.0649   -1.9362    5.3282 C   0  0  0  0  0  0  0  0  0  0  0  0
   45.9541   -1.9193    4.0604 O   0  0  0  0  0  0  0  0  0  0  0  0
   47.0329   -2.6073    6.1177 N   0  0  0  0  0  0  0  0  0  0  0  0
   43.9102    0.4450   10.4202 N   0  0  0  0  0  0  0  0  0  0  0  0
   38.0197    1.4148    9.5662 S   0  0  0  0  0  6  0  0  0  0  0  0
   38.3358    1.1986   11.3147 C   0  0  0  0  0  0  0  0  0  0  0  0
   36.5606    1.7817    9.3835 O   0  0  0  0  0  0  0  0  0  0  0  0
   38.3435    0.1726    8.8256 O   0  0  0  0  0  0  0  0  0  0  0  0
  1  2  1  0
  2  3  1  0
  3  4  2  0
  4  5  1  0
  5  6  2  0
  6  7  1  0
  7  8  2  0
  8  9  1  0
  9 10  1  0
 10 11  1  0
 11 12  2  0
 12 13  1  0
 13 14  2  0
 14 15  1  0
 15 16  1  0
 16 17  1  0
 17 18  2  0
 18 19  1  0
 19 20  2  0
 20 21  1  0
 21 22  2  0
 21 23  1  0
 23 24  1  0
 24 25  2  0
 24 26  1  0
 15 27  2  0
  2 28  1  0
 28 29  1  0
 28 30  2  0
 28 31  2  0
  8  3  1  0
 27 11  1  0
 22 17  1  0
 26 20  1  0
M  END
$$$$
