
     RDKit          3D

 31 34  0  0  0  0  0  0  0  0999 V2000
    4.3369    4.6817  -20.0496 C   0  0  0  0  0  0  0  0  0  0  0  0
    4.3149    4.9287  -18.6062 N   0  0  0  0  0  0  0  0  0  0  0  0
    3.8279    6.1688  -18.0969 C   0  0  0  0  0  0  0  0  0  0  0  0
    4.7981    7.1035  -17.8877 N   0  0  0  0  0  0  0  0  0  0  0  0
    4.5259    8.3200  -17.3942 C   0  0  0  0  0  0  0  0  0  0  0  0
    3.2171    8.6092  -17.0981 C   0  0  0  0  0  0  0  0  0  0  0  0
    2.2129    7.6652  -17.3044 C   0  0  0  0  0  0  0  0  0  0  0  0
    2.5148    6.4046  -17.8180 C   0  0  0  0  0  0  0  0  0  0  0  0
    1.5235    5.3426  -18.0185 C   0  0  0  0  0  0  0  0  0  0  0  0
    1.1596    5.0653  -19.3698 N   0  0  0  0  0  0  0  0  0  0  0  0
    0.2328    5.9019  -20.0365 C   0  0  0  0  0  0  0  0  0  0  0  0
   -0.8959    6.4309  -19.4518 C   0  0  0  0  0  0  0  0  0  0  0  0
   -1.7718    7.2239  -20.1762 C   0  0  0  0  0  0  0  0  0  0  0  0
   -1.5125    7.4776  -21.4671 N   0  0  0  0  0  0  0  0  0  0  0  0
   -0.4129    6.9637  -22.0444 C   0  0  0  0  0  0  0  0  0  0  0  0
   -0.2693    7.2759  -23.4441 N   0  0  0  0  0  0  0  0  0  0  0  0
    0.8910    6.7831  -24.0961 C   0  0  0  0  0  0  0  0  0  0  0  0
    1.9615    6.3789  -23.3247 C   0  0  0  0  0  0  0  0  0  0  0  0
    3.1038    5.8801  -23.8812 C   0  0  0  0  0  0  0  0  0  0  0  0
    3.2093    5.7714  -25.2612 C   0  0  0  0  0  0  0  0  0  0  0  0
    2.1621    6.1647  -26.0531 C   0  0  0  0  0  0  0  0  0  0  0  0
    1.0136    6.6657  -25.4731 C   0  0  0  0  0  0  0  0  0  0  0  0
    2.5438    5.9321  -27.4854 C   0  0  0  0  0  0  0  0  0  0  0  0
    3.9156    5.3940  -27.4144 C   0  0  0  0  0  0  0  0  0  0  0  0
    4.6000    5.0846  -28.4419 O   0  0  0  0  0  0  0  0  0  0  0  0
    4.2868    5.2990  -26.0492 N   0  0  0  0  0  0  0  0  0  0  0  0
    0.4211    6.2096  -21.3525 N   0  0  0  0  0  0  0  0  0  0  0  0
    4.8880    3.6888  -17.5695 S   0  0  0  0  0  6  0  0  0  0  0  0
    6.4280    4.2459  -16.8474 C   0  0  0  0  0  0  0  0  0  0  0  0
    3.8761    3.5003  -16.4571 O   0  0  0  0  0  0  0  0  0  0  0  0
    5.0935    2.4216  -18.3099 O   0  0  0  0  0  0  0  0  0  0  0  0
  1  2  1  0
  2  3  1  0
  3  4  2  0
  4  5  1  0
  5  6  2  0
  6  7  1  0
  7  8  2  0
  8  9  1  0
  9 10  1  0
 10 11  1  0
 11 12  2  0
 12 13  1  0
 13 14  2  0
 14 15  1  0
 15 16  1  0
 16 17  1  0
 17 18  2  0
 18 19  1  0
 19 20  2  0
 20 21  1  0
 21 22  2  0
 21 23  1  0
 23 24  1  0
 24 25  2  0
 24 26  1  0
 15 27  2  0
  2 28  1  0
 28 29  1  0
 28 30  2  0
 28 31  2  0
  8  3  1  0
 27 11  1  0
 22 17  1  0
 26 20  1  0
M  END
$$$$
