
     RDKit          3D

 31 34  0  0  0  0  0  0  0  0999 V2000
   41.9189    1.7115    6.8180 C   0  0  0  0  0  0  0  0  0  0  0  0
   40.6582    2.3017    7.2731 N   0  0  0  0  0  0  0  0  0  0  0  0
   39.9135    1.6852    8.3217 C   0  0  0  0  0  0  0  0  0  0  0  0
   38.9096    0.8717    7.8869 N   0  0  0  0  0  0  0  0  0  0  0  0
   38.0948    0.2250    8.7328 C   0  0  0  0  0  0  0  0  0  0  0  0
   38.3002    0.4051   10.0780 C   0  0  0  0  0  0  0  0  0  0  0  0
   39.3208    1.2340   10.5400 C   0  0  0  0  0  0  0  0  0  0  0  0
   40.1582    1.8991    9.6453 C   0  0  0  0  0  0  0  0  0  0  0  0
   41.2217    2.8237   10.0513 C   0  0  0  0  0  0  0  0  0  0  0  0
   42.5580    2.3357    9.9435 N   0  0  0  0  0  0  0  0  0  0  0  0
   43.0940    1.5162   10.9656 C   0  0  0  0  0  0  0  0  0  0  0  0
   42.7381    1.5982   12.2931 C   0  0  0  0  0  0  0  0  0  0  0  0
   43.3251    0.7769   13.2428 C   0  0  0  0  0  0  0  0  0  0  0  0
   44.2542   -0.1103   12.8586 N   0  0  0  0  0  0  0  0  0  0  0  0
   44.6068   -0.1951   11.5644 C   0  0  0  0  0  0  0  0  0  0  0  0
   45.6432   -1.1576   11.2875 N   0  0  0  0  0  0  0  0  0  0  0  0
   45.8535   -1.5010    9.9266 C   0  0  0  0  0  0  0  0  0  0  0  0
   46.9697   -2.2422    9.5965 C   0  0  0  0  0  0  0  0  0  0  0  0
   47.2288   -2.6224    8.3113 C   0  0  0  0  0  0  0  0  0  0  0  0
   46.3559   -2.2596    7.2945 C   0  0  0  0  0  0  0  0  0  0  0  0
   45.2388   -1.5236    7.5921 C   0  0  0  0  0  0  0  0  0  0  0  0
   44.9916   -1.1489    8.8978 C   0  0  0  0  0  0  0  0  0  0  0  0
   44.4819   -1.2840    6.3189 C   0  0  0  0  0  0  0  0  0  0  0  0
   45.3001   -1.9376    5.2798 C   0  0  0  0  0  0  0  0  0  0  0  0
   44.9938   -1.9368    4.0445 O   0  0  0  0  0  0  0  0  0  0  0  0
   46.4261   -2.5296    5.9063 N   0  0  0  0  0  0  0  0  0  0  0  0
   44.0458    0.5871   10.6610 N   0  0  0  0  0  0  0  0  0  0  0  0
   40.1214    3.7396    6.5083 S   0  0  0  0  0  6  0  0  0  0  0  0
   38.7243    3.3204    5.4710 C   0  0  0  0  0  0  0  0  0  0  0  0
   39.6506    4.6974    7.5844 O   0  0  0  0  0  0  0  0  0  0  0  0
   41.2005    4.3525    5.6982 O   0  0  0  0  0  0  0  0  0  0  0  0
  1  2  1  0
  2  3  1  0
  3  4  2  0
  4  5  1  0
  5  6  2  0
  6  7  1  0
  7  8  2  0
  8  9  1  0
  9 10  1  0
 10 11  1  0
 11 12  2  0
 12 13  1  0
 13 14  2  0
 14 15  1  0
 15 16  1  0
 16 17  1  0
 17 18  2  0
 18 19  1  0
 19 20  2  0
 20 21  1  0
 21 22  2  0
 21 23  1  0
 23 24  1  0
 24 25  2  0
 24 26  1  0
 15 27  2  0
  2 28  1  0
 28 29  1  0
 28 30  2  0
 28 31  2  0
  8  3  1  0
 27 11  1  0
 22 17  1  0
 26 20  1  0
M  END
$$$$
