
     RDKit          3D

 31 34  0  0  0  0  0  0  0  0999 V2000
   41.4997    0.8838    6.1095 C   0  0  0  0  0  0  0  0  0  0  0  0
   40.4961    1.8284    6.6045 N   0  0  0  0  0  0  0  0  0  0  0  0
   39.8050    1.5685    7.8249 C   0  0  0  0  0  0  0  0  0  0  0  0
   38.5217    1.1397    7.6568 N   0  0  0  0  0  0  0  0  0  0  0  0
   37.7168    0.8658    8.6934 C   0  0  0  0  0  0  0  0  0  0  0  0
   38.2269    1.0308    9.9571 C   0  0  0  0  0  0  0  0  0  0  0  0
   39.5359    1.4695   10.1472 C   0  0  0  0  0  0  0  0  0  0  0  0
   40.3586    1.7501    9.0570 C   0  0  0  0  0  0  0  0  0  0  0  0
   41.7285    2.2602    9.1742 C   0  0  0  0  0  0  0  0  0  0  0  0
   42.1681    2.5929   10.4900 N   0  0  0  0  0  0  0  0  0  0  0  0
   42.6575    1.5787   11.3476 C   0  0  0  0  0  0  0  0  0  0  0  0
   42.1490    1.3071   12.5979 C   0  0  0  0  0  0  0  0  0  0  0  0
   42.6971    0.3122   13.3921 C   0  0  0  0  0  0  0  0  0  0  0  0
   43.7393   -0.3949   12.9318 N   0  0  0  0  0  0  0  0  0  0  0  0
   44.2411   -0.1344   11.7125 C   0  0  0  0  0  0  0  0  0  0  0  0
   45.3843   -0.9345   11.3514 N   0  0  0  0  0  0  0  0  0  0  0  0
   45.5215   -1.2765    9.9808 C   0  0  0  0  0  0  0  0  0  0  0  0
   46.6147   -2.0234    9.5919 C   0  0  0  0  0  0  0  0  0  0  0  0
   46.8044   -2.4026    8.2944 C   0  0  0  0  0  0  0  0  0  0  0  0
   45.8820   -2.0330    7.3250 C   0  0  0  0  0  0  0  0  0  0  0  0
   44.7861   -1.2913    7.6815 C   0  0  0  0  0  0  0  0  0  0  0  0
   44.6093   -0.9176    8.9989 C   0  0  0  0  0  0  0  0  0  0  0  0
   43.9653   -1.0450    6.4498 C   0  0  0  0  0  0  0  0  0  0  0  0
   44.7246   -1.7013    5.3685 C   0  0  0  0  0  0  0  0  0  0  0  0
   44.3545   -1.6964    4.1508 O   0  0  0  0  0  0  0  0  0  0  0  0
   45.8783   -2.3008    5.9346 N   0  0  0  0  0  0  0  0  0  0  0  0
   43.7171    0.8128   10.9568 N   0  0  0  0  0  0  0  0  0  0  0  0
   40.1895    3.2363    5.6748 S   0  0  0  0  0  6  0  0  0  0  0  0
   41.2349    4.5465    6.3026 C   0  0  0  0  0  0  0  0  0  0  0  0
   40.5877    2.9493    4.2409 O   0  0  0  0  0  0  0  0  0  0  0  0
   38.7634    3.6317    5.7526 O   0  0  0  0  0  0  0  0  0  0  0  0
  1  2  1  0
  2  3  1  0
  3  4  2  0
  4  5  1  0
  5  6  2  0
  6  7  1  0
  7  8  2  0
  8  9  1  0
  9 10  1  0
 10 11  1  0
 11 12  2  0
 12 13  1  0
 13 14  2  0
 14 15  1  0
 15 16  1  0
 16 17  1  0
 17 18  2  0
 18 19  1  0
 19 20  2  0
 20 21  1  0
 21 22  2  0
 21 23  1  0
 23 24  1  0
 24 25  2  0
 24 26  1  0
 15 27  2  0
  2 28  1  0
 28 29  1  0
 28 30  2  0
 28 31  2  0
  8  3  1  0
 27 11  1  0
 22 17  1  0
 26 20  1  0
M  END
$$$$
