
     RDKit          3D

 31 34  0  0  0  0  0  0  0  0999 V2000
   41.4479    2.1800    6.6221 C   0  0  0  0  0  0  0  0  0  0  0  0
   40.2167    2.6730    7.2433 N   0  0  0  0  0  0  0  0  0  0  0  0
   39.5231    1.8719    8.1982 C   0  0  0  0  0  0  0  0  0  0  0  0
   38.5864    1.0441    7.6541 N   0  0  0  0  0  0  0  0  0  0  0  0
   37.8254    0.2335    8.4033 C   0  0  0  0  0  0  0  0  0  0  0  0
   38.0162    0.2570    9.7625 C   0  0  0  0  0  0  0  0  0  0  0  0
   38.9683    1.0979   10.3356 C   0  0  0  0  0  0  0  0  0  0  0  0
   39.7505    1.9347    9.5405 C   0  0  0  0  0  0  0  0  0  0  0  0
   40.7378    2.8807   10.0706 C   0  0  0  0  0  0  0  0  0  0  0  0
   42.1022    2.4679   10.0133 N   0  0  0  0  0  0  0  0  0  0  0  0
   42.6304    1.6357   11.0291 C   0  0  0  0  0  0  0  0  0  0  0  0
   42.2476    1.6855   12.3507 C   0  0  0  0  0  0  0  0  0  0  0  0
   42.8281    0.8537   13.2952 C   0  0  0  0  0  0  0  0  0  0  0  0
   43.7776   -0.0120   12.9118 N   0  0  0  0  0  0  0  0  0  0  0  0
   44.1566   -0.0654   11.6233 C   0  0  0  0  0  0  0  0  0  0  0  0
   45.2123   -1.0070   11.3476 N   0  0  0  0  0  0  0  0  0  0  0  0
   45.4858   -1.2834    9.9827 C   0  0  0  0  0  0  0  0  0  0  0  0
   44.5669   -0.8899    9.0313 C   0  0  0  0  0  0  0  0  0  0  0  0
   44.7697   -1.1081    7.6992 C   0  0  0  0  0  0  0  0  0  0  0  0
   45.9271   -1.7447    7.2720 C   0  0  0  0  0  0  0  0  0  0  0  0
   46.8580   -2.1467    8.1939 C   0  0  0  0  0  0  0  0  0  0  0  0
   46.6372   -1.9166    9.5373 C   0  0  0  0  0  0  0  0  0  0  0  0
   47.9967   -2.7921    7.4602 C   0  0  0  0  0  0  0  0  0  0  0  0
   47.5968   -2.7322    6.0414 C   0  0  0  0  0  0  0  0  0  0  0  0
   48.3048   -3.2030    5.0943 O   0  0  0  0  0  0  0  0  0  0  0  0
   46.3398   -2.0810    5.9599 N   0  0  0  0  0  0  0  0  0  0  0  0
   43.6016    0.7268   10.7248 N   0  0  0  0  0  0  0  0  0  0  0  0
   39.6509    4.2256    6.7852 S   0  0  0  0  0  6  0  0  0  0  0  0
   40.2458    5.4045    7.9935 C   0  0  0  0  0  0  0  0  0  0  0  0
   40.2574    4.5694    5.4395 O   0  0  0  0  0  0  0  0  0  0  0  0
   38.1709    4.2594    6.7160 O   0  0  0  0  0  0  0  0  0  0  0  0
  1  2  1  0
  2  3  1  0
  3  4  2  0
  4  5  1  0
  5  6  2  0
  6  7  1  0
  7  8  2  0
  8  9  1  0
  9 10  1  0
 10 11  1  0
 11 12  2  0
 12 13  1  0
 13 14  2  0
 14 15  1  0
 15 16  1  0
 16 17  1  0
 17 18  2  0
 18 19  1  0
 19 20  2  0
 20 21  1  0
 21 22  2  0
 21 23  1  0
 23 24  1  0
 24 25  2  0
 24 26  1  0
 15 27  2  0
  2 28  1  0
 28 29  1  0
 28 30  2  0
 28 31  2  0
  8  3  1  0
 27 11  1  0
 22 17  1  0
 26 20  1  0
M  END
$$$$
