
     RDKit          3D

 31 34  0  0  0  0  0  0  0  0999 V2000
   40.8279    2.3265    5.7257 C   0  0  0  0  0  0  0  0  0  0  0  0
   40.0491    2.8880    6.8316 N   0  0  0  0  0  0  0  0  0  0  0  0
   39.6067    2.0494    7.8972 C   0  0  0  0  0  0  0  0  0  0  0  0
   38.2919    1.6973    7.8186 N   0  0  0  0  0  0  0  0  0  0  0  0
   37.6999    0.9290    8.7441 C   0  0  0  0  0  0  0  0  0  0  0  0
   38.4663    0.4949    9.7969 C   0  0  0  0  0  0  0  0  0  0  0  0
   39.8114    0.8464    9.8937 C   0  0  0  0  0  0  0  0  0  0  0  0
   40.4103    1.6469    8.9218 C   0  0  0  0  0  0  0  0  0  0  0  0
   41.8044    2.0984    8.9773 C   0  0  0  0  0  0  0  0  0  0  0  0
   42.2475    2.6283   10.2256 N   0  0  0  0  0  0  0  0  0  0  0  0
   42.7788    1.7618   11.2107 C   0  0  0  0  0  0  0  0  0  0  0  0
   42.4427    1.8049   12.5452 C   0  0  0  0  0  0  0  0  0  0  0  0
   43.0240    0.9381   13.4573 C   0  0  0  0  0  0  0  0  0  0  0  0
   43.9277    0.0448   13.0293 N   0  0  0  0  0  0  0  0  0  0  0  0
   44.2609   -0.0022   11.7280 C   0  0  0  0  0  0  0  0  0  0  0  0
   45.2716   -0.9768   11.4029 N   0  0  0  0  0  0  0  0  0  0  0  0
   45.4452   -1.2880   10.0292 C   0  0  0  0  0  0  0  0  0  0  0  0
   46.5447   -2.0326    9.6536 C   0  0  0  0  0  0  0  0  0  0  0  0
   46.7686   -2.3829    8.3535 C   0  0  0  0  0  0  0  0  0  0  0  0
   45.8757   -1.9853    7.3675 C   0  0  0  0  0  0  0  0  0  0  0  0
   44.7744   -1.2451    7.7105 C   0  0  0  0  0  0  0  0  0  0  0  0
   44.5630   -0.9009    9.0308 C   0  0  0  0  0  0  0  0  0  0  0  0
   43.9899   -0.9654    6.4624 C   0  0  0  0  0  0  0  0  0  0  0  0
   44.7755   -1.6013    5.3878 C   0  0  0  0  0  0  0  0  0  0  0  0
   44.4396   -1.5660    4.1607 O   0  0  0  0  0  0  0  0  0  0  0  0
   45.9095   -2.2209    5.9718 N   0  0  0  0  0  0  0  0  0  0  0  0
   43.7054    0.8234   10.8604 N   0  0  0  0  0  0  0  0  0  0  0  0
   39.6961    4.5657    6.7959 S   0  0  0  0  0  6  0  0  0  0  0  0
   37.9946    4.7571    6.2744 C   0  0  0  0  0  0  0  0  0  0  0  0
   39.8300    5.1050    8.2059 O   0  0  0  0  0  0  0  0  0  0  0  0
   40.6035    5.2862    5.8719 O   0  0  0  0  0  0  0  0  0  0  0  0
  1  2  1  0
  2  3  1  0
  3  4  2  0
  4  5  1  0
  5  6  2  0
  6  7  1  0
  7  8  2  0
  8  9  1  0
  9 10  1  0
 10 11  1  0
 11 12  2  0
 12 13  1  0
 13 14  2  0
 14 15  1  0
 15 16  1  0
 16 17  1  0
 17 18  2  0
 18 19  1  0
 19 20  2  0
 20 21  1  0
 21 22  2  0
 21 23  1  0
 23 24  1  0
 24 25  2  0
 24 26  1  0
 15 27  2  0
  2 28  1  0
 28 29  1  0
 28 30  2  0
 28 31  2  0
  8  3  1  0
 27 11  1  0
 22 17  1  0
 26 20  1  0
M  END
$$$$
