
     RDKit          3D

 31 34  0  0  0  0  0  0  0  0999 V2000
   39.9909   -0.2649    7.9575 C   0  0  0  0  0  0  0  0  0  0  0  0
   40.0215    1.1538    7.5952 N   0  0  0  0  0  0  0  0  0  0  0  0
   39.3497    2.1167    8.4051 C   0  0  0  0  0  0  0  0  0  0  0  0
   38.0180    2.2358    8.1384 N   0  0  0  0  0  0  0  0  0  0  0  0
   37.2324    3.1058    8.7890 C   0  0  0  0  0  0  0  0  0  0  0  0
   37.8138    3.8919    9.7526 C   0  0  0  0  0  0  0  0  0  0  0  0
   39.1738    3.7842   10.0373 C   0  0  0  0  0  0  0  0  0  0  0  0
   39.9756    2.8740    9.3499 C   0  0  0  0  0  0  0  0  0  0  0  0
   41.4206    2.7349    9.5576 C   0  0  0  0  0  0  0  0  0  0  0  0
   41.9116    1.4041    9.7099 N   0  0  0  0  0  0  0  0  0  0  0  0
   42.7467    1.0816   10.8062 C   0  0  0  0  0  0  0  0  0  0  0  0
   42.6271    1.6335   12.0619 C   0  0  0  0  0  0  0  0  0  0  0  0
   43.4990    1.2860   13.0818 C   0  0  0  0  0  0  0  0  0  0  0  0
   44.4734    0.3979   12.8376 N   0  0  0  0  0  0  0  0  0  0  0  0
   44.5963   -0.1442   11.6139 C   0  0  0  0  0  0  0  0  0  0  0  0
   45.7062   -1.0522   11.4693 N   0  0  0  0  0  0  0  0  0  0  0  0
   46.0644   -1.4230   10.1470 C   0  0  0  0  0  0  0  0  0  0  0  0
   47.2552   -2.0912    9.9472 C   0  0  0  0  0  0  0  0  0  0  0  0
   47.6575   -2.4926    8.7061 C   0  0  0  0  0  0  0  0  0  0  0  0
   46.8590   -2.2273    7.6019 C   0  0  0  0  0  0  0  0  0  0  0  0
   45.6706   -1.5655    7.7695 C   0  0  0  0  0  0  0  0  0  0  0  0
   45.2786   -1.1680    9.0323 C   0  0  0  0  0  0  0  0  0  0  0  0
   45.0194   -1.4228    6.4253 C   0  0  0  0  0  0  0  0  0  0  0  0
   45.9734   -2.0481    5.4898 C   0  0  0  0  0  0  0  0  0  0  0  0
   45.7830   -2.1093    4.2329 O   0  0  0  0  0  0  0  0  0  0  0  0
   47.0754   -2.5360    6.2371 N   0  0  0  0  0  0  0  0  0  0  0  0
   43.7643    0.1870   10.6440 N   0  0  0  0  0  0  0  0  0  0  0  0
   40.8826    1.6044    6.1825 S   0  0  0  0  0  6  0  0  0  0  0  0
   42.6079    1.2038    6.4406 C   0  0  0  0  0  0  0  0  0  0  0  0
   40.3632    0.7703    5.0286 O   0  0  0  0  0  0  0  0  0  0  0  0
   40.7256    3.0498    5.8955 O   0  0  0  0  0  0  0  0  0  0  0  0
  1  2  1  0
  2  3  1  0
  3  4  2  0
  4  5  1  0
  5  6  2  0
  6  7  1  0
  7  8  2  0
  8  9  1  0
  9 10  1  0
 10 11  1  0
 11 12  2  0
 12 13  1  0
 13 14  2  0
 14 15  1  0
 15 16  1  0
 16 17  1  0
 17 18  2  0
 18 19  1  0
 19 20  2  0
 20 21  1  0
 21 22  2  0
 21 23  1  0
 23 24  1  0
 24 25  2  0
 24 26  1  0
 15 27  2  0
  2 28  1  0
 28 29  1  0
 28 30  2  0
 28 31  2  0
  8  3  1  0
 27 11  1  0
 22 17  1  0
 26 20  1  0
M  END
$$$$
