
     RDKit          3D

 31 34  0  0  0  0  0  0  0  0999 V2000
    5.2242    4.4012  -20.3157 C   0  0  0  0  0  0  0  0  0  0  0  0
    4.7992    4.5712  -18.9246 N   0  0  0  0  0  0  0  0  0  0  0  0
    4.1403    5.7683  -18.5158 C   0  0  0  0  0  0  0  0  0  0  0  0
    4.9149    6.6003  -17.7632 N   0  0  0  0  0  0  0  0  0  0  0  0
    4.4545    7.7613  -17.2756 C   0  0  0  0  0  0  0  0  0  0  0  0
    3.1549    8.1006  -17.5589 C   0  0  0  0  0  0  0  0  0  0  0  0
    2.3487    7.2615  -18.3257 C   0  0  0  0  0  0  0  0  0  0  0  0
    2.8445    6.0573  -18.8240 C   0  0  0  0  0  0  0  0  0  0  0  0
    2.0465    5.0997  -19.5966 C   0  0  0  0  0  0  0  0  0  0  0  0
    0.6442    5.0895  -19.3343 N   0  0  0  0  0  0  0  0  0  0  0  0
   -0.2132    5.9599  -20.0489 C   0  0  0  0  0  0  0  0  0  0  0  0
   -1.4331    6.4001  -19.5865 C   0  0  0  0  0  0  0  0  0  0  0  0
   -2.2304    7.2341  -20.3547 C   0  0  0  0  0  0  0  0  0  0  0  0
   -1.8033    7.6158  -21.5670 N   0  0  0  0  0  0  0  0  0  0  0  0
   -0.6138    7.1892  -22.0248 C   0  0  0  0  0  0  0  0  0  0  0  0
   -0.2885    7.6363  -23.3558 N   0  0  0  0  0  0  0  0  0  0  0  0
    0.8603    7.0648  -23.9622 C   0  0  0  0  0  0  0  0  0  0  0  0
    1.8587    6.5675  -23.1496 C   0  0  0  0  0  0  0  0  0  0  0  0
    2.9846    5.9899  -23.6616 C   0  0  0  0  0  0  0  0  0  0  0  0
    3.1471    5.8938  -25.0370 C   0  0  0  0  0  0  0  0  0  0  0  0
    2.1722    6.3789  -25.8692 C   0  0  0  0  0  0  0  0  0  0  0  0
    1.0391    6.9587  -25.3340 C   0  0  0  0  0  0  0  0  0  0  0  0
    2.6028    6.1387  -27.2863 C   0  0  0  0  0  0  0  0  0  0  0  0
    3.9242    5.4948  -27.1617 C   0  0  0  0  0  0  0  0  0  0  0  0
    4.6311    5.1486  -28.1619 O   0  0  0  0  0  0  0  0  0  0  0  0
    4.2215    5.3511  -25.7827 N   0  0  0  0  0  0  0  0  0  0  0  0
    0.1448    6.3960  -21.2913 N   0  0  0  0  0  0  0  0  0  0  0  0
    5.1195    3.2954  -17.8245 S   0  0  0  0  0  6  0  0  0  0  0  0
    6.6794    3.6444  -17.0190 C   0  0  0  0  0  0  0  0  0  0  0  0
    4.0265    3.2937  -16.7746 O   0  0  0  0  0  0  0  0  0  0  0  0
    5.1788    1.9881  -18.5201 O   0  0  0  0  0  0  0  0  0  0  0  0
  1  2  1  0
  2  3  1  0
  3  4  2  0
  4  5  1  0
  5  6  2  0
  6  7  1  0
  7  8  2  0
  8  9  1  0
  9 10  1  0
 10 11  1  0
 11 12  2  0
 12 13  1  0
 13 14  2  0
 14 15  1  0
 15 16  1  0
 16 17  1  0
 17 18  2  0
 18 19  1  0
 19 20  2  0
 20 21  1  0
 21 22  2  0
 21 23  1  0
 23 24  1  0
 24 25  2  0
 24 26  1  0
 15 27  2  0
  2 28  1  0
 28 29  1  0
 28 30  2  0
 28 31  2  0
  8  3  1  0
 27 11  1  0
 22 17  1  0
 26 20  1  0
M  END
$$$$
