
     RDKit          3D

 31 34  0  0  0  0  0  0  0  0999 V2000
   39.6480    3.6509   10.3298 C   0  0  0  0  0  0  0  0  0  0  0  0
   39.1619    2.7937    9.2464 N   0  0  0  0  0  0  0  0  0  0  0  0
   39.8069    2.8084    7.9743 C   0  0  0  0  0  0  0  0  0  0  0  0
   39.1708    3.5671    7.0370 N   0  0  0  0  0  0  0  0  0  0  0  0
   39.6238    3.6812    5.7804 C   0  0  0  0  0  0  0  0  0  0  0  0
   40.7699    3.0007    5.4521 C   0  0  0  0  0  0  0  0  0  0  0  0
   41.4322    2.2196    6.3972 C   0  0  0  0  0  0  0  0  0  0  0  0
   40.9459    2.1122    7.6996 C   0  0  0  0  0  0  0  0  0  0  0  0
   41.5576    1.2742    8.7361 C   0  0  0  0  0  0  0  0  0  0  0  0
   42.4578    1.9294    9.6281 N   0  0  0  0  0  0  0  0  0  0  0  0
   42.9990    1.2229   10.7287 C   0  0  0  0  0  0  0  0  0  0  0  0
   42.6748    1.4684   12.0441 C   0  0  0  0  0  0  0  0  0  0  0  0
   43.2653    0.7504   13.0722 C   0  0  0  0  0  0  0  0  0  0  0  0
   44.1663   -0.1977   12.7768 N   0  0  0  0  0  0  0  0  0  0  0  0
   44.4879   -0.4420   11.4949 C   0  0  0  0  0  0  0  0  0  0  0  0
   45.4970   -1.4549   11.3128 N   0  0  0  0  0  0  0  0  0  0  0  0
   45.8605   -1.7660    9.9766 C   0  0  0  0  0  0  0  0  0  0  0  0
   47.0216   -2.4786    9.7561 C   0  0  0  0  0  0  0  0  0  0  0  0
   47.4262   -2.8271    8.4999 C   0  0  0  0  0  0  0  0  0  0  0  0
   46.6609   -2.4605    7.4012 C   0  0  0  0  0  0  0  0  0  0  0  0
   45.5025   -1.7525    7.5892 C   0  0  0  0  0  0  0  0  0  0  0  0
   45.1076   -1.4096    8.8671 C   0  0  0  0  0  0  0  0  0  0  0  0
   44.8827   -1.5015    6.2460 C   0  0  0  0  0  0  0  0  0  0  0  0
   45.8223   -2.1176    5.2901 C   0  0  0  0  0  0  0  0  0  0  0  0
   45.6515   -2.0973    4.0290 O   0  0  0  0  0  0  0  0  0  0  0  0
   46.8865   -2.7004    6.0241 N   0  0  0  0  0  0  0  0  0  0  0  0
   43.9236    0.2420   10.5169 N   0  0  0  0  0  0  0  0  0  0  0  0
   37.8094    1.7880    9.5621 S   0  0  0  0  0  6  0  0  0  0  0  0
   38.4109    0.1197    9.8037 C   0  0  0  0  0  0  0  0  0  0  0  0
   37.1644    2.2575   10.8507 O   0  0  0  0  0  0  0  0  0  0  0  0
   36.8365    1.8294    8.4449 O   0  0  0  0  0  0  0  0  0  0  0  0
  1  2  1  0
  2  3  1  0
  3  4  2  0
  4  5  1  0
  5  6  2  0
  6  7  1  0
  7  8  2  0
  8  9  1  0
  9 10  1  0
 10 11  1  0
 11 12  2  0
 12 13  1  0
 13 14  2  0
 14 15  1  0
 15 16  1  0
 16 17  1  0
 17 18  2  0
 18 19  1  0
 19 20  2  0
 20 21  1  0
 21 22  2  0
 21 23  1  0
 23 24  1  0
 24 25  2  0
 24 26  1  0
 15 27  2  0
  2 28  1  0
 28 29  1  0
 28 30  2  0
 28 31  2  0
  8  3  1  0
 27 11  1  0
 22 17  1  0
 26 20  1  0
M  END
$$$$
