
     RDKit          3D

 31 34  0  0  0  0  0  0  0  0999 V2000
   39.3776    3.9656    6.5625 C   0  0  0  0  0  0  0  0  0  0  0  0
   39.4490    2.8079    7.4566 N   0  0  0  0  0  0  0  0  0  0  0  0
   40.4035    1.7748    7.2196 C   0  0  0  0  0  0  0  0  0  0  0  0
   40.3593    1.2552    5.9599 N   0  0  0  0  0  0  0  0  0  0  0  0
   41.1703    0.2631    5.5658 C   0  0  0  0  0  0  0  0  0  0  0  0
   42.0672   -0.2285    6.4815 C   0  0  0  0  0  0  0  0  0  0  0  0
   42.1250    0.2900    7.7737 C   0  0  0  0  0  0  0  0  0  0  0  0
   41.2731    1.3217    8.1662 C   0  0  0  0  0  0  0  0  0  0  0  0
   41.2400    1.8871    9.5189 C   0  0  0  0  0  0  0  0  0  0  0  0
   42.4977    2.2646   10.0766 N   0  0  0  0  0  0  0  0  0  0  0  0
   43.0791    1.4793   11.1007 C   0  0  0  0  0  0  0  0  0  0  0  0
   42.9140    1.7140   12.4473 C   0  0  0  0  0  0  0  0  0  0  0  0
   43.5359    0.9150   13.3939 C   0  0  0  0  0  0  0  0  0  0  0  0
   44.3100   -0.1017   12.9877 N   0  0  0  0  0  0  0  0  0  0  0  0
   44.4761   -0.3358   11.6746 C   0  0  0  0  0  0  0  0  0  0  0  0
   45.3627   -1.4302   11.3685 N   0  0  0  0  0  0  0  0  0  0  0  0
   45.7006   -1.6201   10.0032 C   0  0  0  0  0  0  0  0  0  0  0  0
   46.9492   -2.1200    9.6943 C   0  0  0  0  0  0  0  0  0  0  0  0
   47.3380   -2.3432    8.4051 C   0  0  0  0  0  0  0  0  0  0  0  0
   46.4654   -2.0629    7.3622 C   0  0  0  0  0  0  0  0  0  0  0  0
   45.2185   -1.5657    7.6383 C   0  0  0  0  0  0  0  0  0  0  0  0
   44.8414   -1.3473    8.9485 C   0  0  0  0  0  0  0  0  0  0  0  0
   44.4952   -1.3649    6.3391 C   0  0  0  0  0  0  0  0  0  0  0  0
   45.4708   -1.7755    5.3115 C   0  0  0  0  0  0  0  0  0  0  0  0
   45.2319   -1.7308    4.0622 O   0  0  0  0  0  0  0  0  0  0  0  0
   46.6536   -2.2038    5.9660 N   0  0  0  0  0  0  0  0  0  0  0  0
   43.8821    0.4254   10.7744 N   0  0  0  0  0  0  0  0  0  0  0  0
   38.3580    2.7442    8.7781 S   0  0  0  0  0  6  0  0  0  0  0  0
   37.5779    1.1333    8.7680 C   0  0  0  0  0  0  0  0  0  0  0  0
   39.1594    2.8820   10.0571 O   0  0  0  0  0  0  0  0  0  0  0  0
   37.3361    3.8133    8.6833 O   0  0  0  0  0  0  0  0  0  0  0  0
  1  2  1  0
  2  3  1  0
  3  4  2  0
  4  5  1  0
  5  6  2  0
  6  7  1  0
  7  8  2  0
  8  9  1  0
  9 10  1  0
 10 11  1  0
 11 12  2  0
 12 13  1  0
 13 14  2  0
 14 15  1  0
 15 16  1  0
 16 17  1  0
 17 18  2  0
 18 19  1  0
 19 20  2  0
 20 21  1  0
 21 22  2  0
 21 23  1  0
 23 24  1  0
 24 25  2  0
 24 26  1  0
 15 27  2  0
  2 28  1  0
 28 29  1  0
 28 30  2  0
 28 31  2  0
  8  3  1  0
 27 11  1  0
 22 17  1  0
 26 20  1  0
M  END
$$$$
