
     RDKit          3D

 31 34  0  0  0  0  0  0  0  0999 V2000
    4.7226    3.7366  -17.1532 C   0  0  0  0  0  0  0  0  0  0  0  0
    4.3989    5.0495  -17.7157 N   0  0  0  0  0  0  0  0  0  0  0  0
    4.5323    5.2837  -19.1163 C   0  0  0  0  0  0  0  0  0  0  0  0
    5.7782    5.6859  -19.4967 N   0  0  0  0  0  0  0  0  0  0  0  0
    6.0808    5.9700  -20.7715 C   0  0  0  0  0  0  0  0  0  0  0  0
    5.0836    5.8433  -21.7064 C   0  0  0  0  0  0  0  0  0  0  0  0
    3.8041    5.4346  -21.3350 C   0  0  0  0  0  0  0  0  0  0  0  0
    3.5075    5.1439  -20.0040 C   0  0  0  0  0  0  0  0  0  0  0  0
    2.1763    4.7549  -19.5273 C   0  0  0  0  0  0  0  0  0  0  0  0
    1.3188    5.8170  -19.1126 N   0  0  0  0  0  0  0  0  0  0  0  0
    0.3254    6.3064  -19.9942 C   0  0  0  0  0  0  0  0  0  0  0  0
   -1.0294    6.1991  -19.7736 C   0  0  0  0  0  0  0  0  0  0  0  0
   -1.9444    6.6818  -20.6960 C   0  0  0  0  0  0  0  0  0  0  0  0
   -1.4992    7.2618  -21.8199 N   0  0  0  0  0  0  0  0  0  0  0  0
   -0.1779    7.3692  -22.0419 C   0  0  0  0  0  0  0  0  0  0  0  0
    0.1708    7.9742  -23.3027 N   0  0  0  0  0  0  0  0  0  0  0  0
    1.1056    7.2778  -24.1122 C   0  0  0  0  0  0  0  0  0  0  0  0
    2.0774    6.5170  -23.4948 C   0  0  0  0  0  0  0  0  0  0  0  0
    2.9999    5.8079  -24.2087 C   0  0  0  0  0  0  0  0  0  0  0  0
    2.9756    5.8437  -25.5963 C   0  0  0  0  0  0  0  0  0  0  0  0
    2.0219    6.5905  -26.2374 C   0  0  0  0  0  0  0  0  0  0  0  0
    1.0956    7.3004  -25.4995 C   0  0  0  0  0  0  0  0  0  0  0  0
    2.2254    6.4417  -27.7165 C   0  0  0  0  0  0  0  0  0  0  0  0
    3.4012    5.5588  -27.8357 C   0  0  0  0  0  0  0  0  0  0  0  0
    3.9028    5.2082  -28.9517 O   0  0  0  0  0  0  0  0  0  0  0  0
    3.8269    5.2050  -26.5302 N   0  0  0  0  0  0  0  0  0  0  0  0
    0.6923    6.9100  -21.1617 N   0  0  0  0  0  0  0  0  0  0  0  0
    3.8618    6.2739  -16.6419 S   0  0  0  0  0  6  0  0  0  0  0  0
    2.1271    5.9870  -16.3067 C   0  0  0  0  0  0  0  0  0  0  0  0
    4.6317    6.1327  -15.3442 O   0  0  0  0  0  0  0  0  0  0  0  0
    4.0591    7.6228  -17.2232 O   0  0  0  0  0  0  0  0  0  0  0  0
  1  2  1  0
  2  3  1  0
  3  4  2  0
  4  5  1  0
  5  6  2  0
  6  7  1  0
  7  8  2  0
  8  9  1  0
  9 10  1  0
 10 11  1  0
 11 12  2  0
 12 13  1  0
 13 14  2  0
 14 15  1  0
 15 16  1  0
 16 17  1  0
 17 18  2  0
 18 19  1  0
 19 20  2  0
 20 21  1  0
 21 22  2  0
 21 23  1  0
 23 24  1  0
 24 25  2  0
 24 26  1  0
 15 27  2  0
  2 28  1  0
 28 29  1  0
 28 30  2  0
 28 31  2  0
  8  3  1  0
 27 11  1  0
 22 17  1  0
 26 20  1  0
M  END
$$$$
