
     RDKit          3D

 31 34  0  0  0  0  0  0  0  0999 V2000
    4.5957    4.2983  -16.5488 C   0  0  0  0  0  0  0  0  0  0  0  0
    4.1164    5.4983  -17.2379 N   0  0  0  0  0  0  0  0  0  0  0  0
    4.2299    5.6063  -18.6556 C   0  0  0  0  0  0  0  0  0  0  0  0
    5.4852    5.9112  -19.0915 N   0  0  0  0  0  0  0  0  0  0  0  0
    5.7729    6.0709  -20.3911 C   0  0  0  0  0  0  0  0  0  0  0  0
    4.7502    5.9162  -21.2937 C   0  0  0  0  0  0  0  0  0  0  0  0
    3.4608    5.6058  -20.8656 C   0  0  0  0  0  0  0  0  0  0  0  0
    3.1800    5.4440  -19.5095 C   0  0  0  0  0  0  0  0  0  0  0  0
    1.8423    5.1646  -18.9774 C   0  0  0  0  0  0  0  0  0  0  0  0
    0.8661    4.7267  -19.9210 N   0  0  0  0  0  0  0  0  0  0  0  0
    0.0536    5.6754  -20.5869 C   0  0  0  0  0  0  0  0  0  0  0  0
   -0.8637    6.4883  -19.9598 C   0  0  0  0  0  0  0  0  0  0  0  0
   -1.6426    7.3781  -20.6827 C   0  0  0  0  0  0  0  0  0  0  0  0
   -1.4976    7.4452  -22.0140 N   0  0  0  0  0  0  0  0  0  0  0  0
   -0.6046    6.6539  -22.6327 C   0  0  0  0  0  0  0  0  0  0  0  0
   -0.5736    6.7922  -24.0670 N   0  0  0  0  0  0  0  0  0  0  0  0
    0.6493    6.4795  -24.7159 C   0  0  0  0  0  0  0  0  0  0  0  0
    0.6566    6.3602  -26.0907 C   0  0  0  0  0  0  0  0  0  0  0  0
    1.7979    6.0769  -26.7839 C   0  0  0  0  0  0  0  0  0  0  0  0
    2.9939    5.8985  -26.1019 C   0  0  0  0  0  0  0  0  0  0  0  0
    3.0174    6.0111  -24.7362 C   0  0  0  0  0  0  0  0  0  0  0  0
    1.8538    6.2996  -24.0512 C   0  0  0  0  0  0  0  0  0  0  0  0
    4.4249    5.7796  -24.2705 C   0  0  0  0  0  0  0  0  0  0  0  0
    5.1776    5.5025  -25.5086 C   0  0  0  0  0  0  0  0  0  0  0  0
    6.4217    5.2347  -25.5262 O   0  0  0  0  0  0  0  0  0  0  0  0
    4.2818    5.5923  -26.6042 N   0  0  0  0  0  0  0  0  0  0  0  0
    0.1374    5.8078  -21.9424 N   0  0  0  0  0  0  0  0  0  0  0  0
    3.4246    6.7480  -16.2891 S   0  0  0  0  0  6  0  0  0  0  0  0
    4.2074    8.2884  -16.7561 C   0  0  0  0  0  0  0  0  0  0  0  0
    1.9503    6.8359  -16.6292 O   0  0  0  0  0  0  0  0  0  0  0  0
    3.6132    6.4910  -14.8418 O   0  0  0  0  0  0  0  0  0  0  0  0
  1  2  1  0
  2  3  1  0
  3  4  2  0
  4  5  1  0
  5  6  2  0
  6  7  1  0
  7  8  2  0
  8  9  1  0
  9 10  1  0
 10 11  1  0
 11 12  2  0
 12 13  1  0
 13 14  2  0
 14 15  1  0
 15 16  1  0
 16 17  1  0
 17 18  2  0
 18 19  1  0
 19 20  2  0
 20 21  1  0
 21 22  2  0
 21 23  1  0
 23 24  1  0
 24 25  2  0
 24 26  1  0
 15 27  2  0
  2 28  1  0
 28 29  1  0
 28 30  2  0
 28 31  2  0
  8  3  1  0
 27 11  1  0
 22 17  1  0
 26 20  1  0
M  END
$$$$
