
     RDKit          3D

 31 34  0  0  0  0  0  0  0  0999 V2000
   41.2632    1.1645    6.2211 C   0  0  0  0  0  0  0  0  0  0  0  0
   40.2581    2.0608    6.7966 N   0  0  0  0  0  0  0  0  0  0  0  0
   39.6720    1.7644    8.0627 C   0  0  0  0  0  0  0  0  0  0  0  0
   38.3871    1.3146    7.9891 N   0  0  0  0  0  0  0  0  0  0  0  0
   37.6729    1.0057    9.0809 C   0  0  0  0  0  0  0  0  0  0  0  0
   38.2800    1.1560   10.3029 C   0  0  0  0  0  0  0  0  0  0  0  0
   39.5922    1.6158   10.3966 C   0  0  0  0  0  0  0  0  0  0  0  0
   40.3196    1.9328    9.2501 C   0  0  0  0  0  0  0  0  0  0  0  0
   41.6854    2.4666    9.2678 C   0  0  0  0  0  0  0  0  0  0  0  0
   42.2116    2.8129   10.5478 N   0  0  0  0  0  0  0  0  0  0  0  0
   42.7647    1.8089   11.3781 C   0  0  0  0  0  0  0  0  0  0  0  0
   42.2980    1.4971   12.6354 C   0  0  0  0  0  0  0  0  0  0  0  0
   42.9074    0.5157   13.4013 C   0  0  0  0  0  0  0  0  0  0  0  0
   43.9683   -0.1381   12.9065 N   0  0  0  0  0  0  0  0  0  0  0  0
   44.4295    0.1618   11.6802 C   0  0  0  0  0  0  0  0  0  0  0  0
   45.5977   -0.5821   11.2807 N   0  0  0  0  0  0  0  0  0  0  0  0
   45.6668   -0.9882    9.9226 C   0  0  0  0  0  0  0  0  0  0  0  0
   46.7346   -1.7630    9.5177 C   0  0  0  0  0  0  0  0  0  0  0  0
   46.8593   -2.2035    8.2317 C   0  0  0  0  0  0  0  0  0  0  0  0
   45.8946   -1.8699    7.2908 C   0  0  0  0  0  0  0  0  0  0  0  0
   44.8226   -1.1017    7.6637 C   0  0  0  0  0  0  0  0  0  0  0  0
   44.7117   -0.6660    8.9692 C   0  0  0  0  0  0  0  0  0  0  0  0
   43.9460   -0.9045    6.4620 C   0  0  0  0  0  0  0  0  0  0  0  0
   44.6479   -1.6173    5.3778 C   0  0  0  0  0  0  0  0  0  0  0  0
   44.2202   -1.6649    4.1800 O   0  0  0  0  0  0  0  0  0  0  0  0
   45.8226   -2.2014    5.9161 N   0  0  0  0  0  0  0  0  0  0  0  0
   43.8472    1.0959   10.9515 N   0  0  0  0  0  0  0  0  0  0  0  0
   39.8209    3.4577    5.9034 S   0  0  0  0  0  6  0  0  0  0  0  0
   41.0820    4.6987    6.1740 C   0  0  0  0  0  0  0  0  0  0  0  0
   39.8140    3.0927    4.4324 O   0  0  0  0  0  0  0  0  0  0  0  0
   38.4946    3.9697    6.3216 O   0  0  0  0  0  0  0  0  0  0  0  0
  1  2  1  0
  2  3  1  0
  3  4  2  0
  4  5  1  0
  5  6  2  0
  6  7  1  0
  7  8  2  0
  8  9  1  0
  9 10  1  0
 10 11  1  0
 11 12  2  0
 12 13  1  0
 13 14  2  0
 14 15  1  0
 15 16  1  0
 16 17  1  0
 17 18  2  0
 18 19  1  0
 19 20  2  0
 20 21  1  0
 21 22  2  0
 21 23  1  0
 23 24  1  0
 24 25  2  0
 24 26  1  0
 15 27  2  0
  2 28  1  0
 28 29  1  0
 28 30  2  0
 28 31  2  0
  8  3  1  0
 27 11  1  0
 22 17  1  0
 26 20  1  0
M  END
$$$$
