
     RDKit          3D

 31 34  0  0  0  0  0  0  0  0999 V2000
   38.5807    3.6637    7.2191 C   0  0  0  0  0  0  0  0  0  0  0  0
   39.0177    2.4951    7.9861 N   0  0  0  0  0  0  0  0  0  0  0  0
   40.1360    1.7256    7.5484 C   0  0  0  0  0  0  0  0  0  0  0  0
   39.9450    1.0967    6.3539 N   0  0  0  0  0  0  0  0  0  0  0  0
   40.8818    0.3149    5.7984 C   0  0  0  0  0  0  0  0  0  0  0  0
   42.0654    0.1591    6.4762 C   0  0  0  0  0  0  0  0  0  0  0  0
   42.2771    0.7935    7.6988 C   0  0  0  0  0  0  0  0  0  0  0  0
   41.2909    1.6027    8.2616 C   0  0  0  0  0  0  0  0  0  0  0  0
   41.4188    2.2645    9.5641 C   0  0  0  0  0  0  0  0  0  0  0  0
   42.7455    2.4242   10.0637 N   0  0  0  0  0  0  0  0  0  0  0  0
   43.2225    1.5673   11.0843 C   0  0  0  0  0  0  0  0  0  0  0  0
   42.8094    1.6181   12.3968 C   0  0  0  0  0  0  0  0  0  0  0  0
   43.3406    0.7605   13.3473 C   0  0  0  0  0  0  0  0  0  0  0  0
   44.2716   -0.1314   12.9789 N   0  0  0  0  0  0  0  0  0  0  0  0
   44.6799   -0.1858   11.6996 C   0  0  0  0  0  0  0  0  0  0  0  0
   45.7122   -1.1578   11.4408 N   0  0  0  0  0  0  0  0  0  0  0  0
   46.0402   -1.3995   10.0813 C   0  0  0  0  0  0  0  0  0  0  0  0
   47.2250   -2.0451    9.7917 C   0  0  0  0  0  0  0  0  0  0  0  0
   47.5988   -2.3251    8.5090 C   0  0  0  0  0  0  0  0  0  0  0  0
   46.7765   -1.9549    7.4535 C   0  0  0  0  0  0  0  0  0  0  0  0
   45.5935   -1.3125    7.7105 C   0  0  0  0  0  0  0  0  0  0  0  0
   45.2304   -1.0385    9.0141 C   0  0  0  0  0  0  0  0  0  0  0  0
   44.9129   -1.0411    6.4010 C   0  0  0  0  0  0  0  0  0  0  0  0
   45.8447   -1.5733    5.3887 C   0  0  0  0  0  0  0  0  0  0  0  0
   45.6263   -1.5132    4.1363 O   0  0  0  0  0  0  0  0  0  0  0  0
   46.9620   -2.1307    6.0609 N   0  0  0  0  0  0  0  0  0  0  0  0
   44.1721    0.6309   10.7952 N   0  0  0  0  0  0  0  0  0  0  0  0
   38.1465    2.0949    9.4079 S   0  0  0  0  0  6  0  0  0  0  0  0
   37.8626    0.3277    9.3979 C   0  0  0  0  0  0  0  0  0  0  0  0
   39.0141    2.4354   10.6030 O   0  0  0  0  0  0  0  0  0  0  0  0
   36.8581    2.8245    9.4719 O   0  0  0  0  0  0  0  0  0  0  0  0
  1  2  1  0
  2  3  1  0
  3  4  2  0
  4  5  1  0
  5  6  2  0
  6  7  1  0
  7  8  2  0
  8  9  1  0
  9 10  1  0
 10 11  1  0
 11 12  2  0
 12 13  1  0
 13 14  2  0
 14 15  1  0
 15 16  1  0
 16 17  1  0
 17 18  2  0
 18 19  1  0
 19 20  2  0
 20 21  1  0
 21 22  2  0
 21 23  1  0
 23 24  1  0
 24 25  2  0
 24 26  1  0
 15 27  2  0
  2 28  1  0
 28 29  1  0
 28 30  2  0
 28 31  2  0
  8  3  1  0
 27 11  1  0
 22 17  1  0
 26 20  1  0
M  END
$$$$
