
     RDKit          3D

 31 34  0  0  0  0  0  0  0  0999 V2000
    5.4425    3.8711  -19.2351 C   0  0  0  0  0  0  0  0  0  0  0  0
    4.6384    4.2983  -18.0881 N   0  0  0  0  0  0  0  0  0  0  0  0
    4.1738    5.6438  -17.9976 C   0  0  0  0  0  0  0  0  0  0  0  0
    4.9317    6.4408  -17.1919 N   0  0  0  0  0  0  0  0  0  0  0  0
    4.6330    7.7295  -16.9740 C   0  0  0  0  0  0  0  0  0  0  0  0
    3.5205    8.2395  -17.5959 C   0  0  0  0  0  0  0  0  0  0  0  0
    2.7337    7.4388  -18.4216 C   0  0  0  0  0  0  0  0  0  0  0  0
    3.0596    6.1002  -18.6362 C   0  0  0  0  0  0  0  0  0  0  0  0
    2.2572    5.1820  -19.4510 C   0  0  0  0  0  0  0  0  0  0  0  0
    0.8561    5.1604  -19.1836 N   0  0  0  0  0  0  0  0  0  0  0  0
   -0.0213    5.9608  -19.9538 C   0  0  0  0  0  0  0  0  0  0  0  0
   -1.0111    6.7581  -19.4244 C   0  0  0  0  0  0  0  0  0  0  0  0
   -1.8494    7.4968  -20.2445 C   0  0  0  0  0  0  0  0  0  0  0  0
   -1.6909    7.4309  -21.5744 N   0  0  0  0  0  0  0  0  0  0  0  0
   -0.7272    6.6540  -22.0978 C   0  0  0  0  0  0  0  0  0  0  0  0
   -0.6866    6.6382  -23.5385 N   0  0  0  0  0  0  0  0  0  0  0  0
    0.5568    6.3160  -24.1422 C   0  0  0  0  0  0  0  0  0  0  0  0
    0.6028    6.1454  -25.5109 C   0  0  0  0  0  0  0  0  0  0  0  0
    1.7654    5.8499  -26.1621 C   0  0  0  0  0  0  0  0  0  0  0  0
    2.9443    5.7114  -25.4421 C   0  0  0  0  0  0  0  0  0  0  0  0
    2.9296    5.8753  -24.0815 C   0  0  0  0  0  0  0  0  0  0  0  0
    1.7447    6.1753  -23.4393 C   0  0  0  0  0  0  0  0  0  0  0  0
    4.3263    5.6780  -23.5700 C   0  0  0  0  0  0  0  0  0  0  0  0
    5.1153    5.3637  -24.7763 C   0  0  0  0  0  0  0  0  0  0  0  0
    6.3623    5.1103  -24.7504 O   0  0  0  0  0  0  0  0  0  0  0  0
    4.2487    5.4020  -25.8980 N   0  0  0  0  0  0  0  0  0  0  0  0
    0.0713    5.9521  -21.3152 N   0  0  0  0  0  0  0  0  0  0  0  0
    4.2830    3.1364  -16.8781 S   0  0  0  0  0  6  0  0  0  0  0  0
    4.1654    1.5364  -17.6718 C   0  0  0  0  0  0  0  0  0  0  0  0
    5.4417    3.1043  -15.9016 O   0  0  0  0  0  0  0  0  0  0  0  0
    3.0175    3.4596  -16.1778 O   0  0  0  0  0  0  0  0  0  0  0  0
  1  2  1  0
  2  3  1  0
  3  4  2  0
  4  5  1  0
  5  6  2  0
  6  7  1  0
  7  8  2  0
  8  9  1  0
  9 10  1  0
 10 11  1  0
 11 12  2  0
 12 13  1  0
 13 14  2  0
 14 15  1  0
 15 16  1  0
 16 17  1  0
 17 18  2  0
 18 19  1  0
 19 20  2  0
 20 21  1  0
 21 22  2  0
 21 23  1  0
 23 24  1  0
 24 25  2  0
 24 26  1  0
 15 27  2  0
  2 28  1  0
 28 29  1  0
 28 30  2  0
 28 31  2  0
  8  3  1  0
 27 11  1  0
 22 17  1  0
 26 20  1  0
M  END
$$$$
