
     RDKit          3D

 31 34  0  0  0  0  0  0  0  0999 V2000
    2.1747    4.2074  -15.2049 C   0  0  0  0  0  0  0  0  0  0  0  0
    1.5624    5.3687  -15.8539 N   0  0  0  0  0  0  0  0  0  0  0  0
    2.3373    6.2036  -16.7123 C   0  0  0  0  0  0  0  0  0  0  0  0
    3.1327    7.0933  -16.0529 N   0  0  0  0  0  0  0  0  0  0  0  0
    3.9151    7.9697  -16.6988 C   0  0  0  0  0  0  0  0  0  0  0  0
    3.8964    7.9495  -18.0712 C   0  0  0  0  0  0  0  0  0  0  0  0
    3.0885    7.0477  -18.7613 C   0  0  0  0  0  0  0  0  0  0  0  0
    2.2807    6.1437  -18.0727 C   0  0  0  0  0  0  0  0  0  0  0  0
    1.3691    5.1979  -18.7248 C   0  0  0  0  0  0  0  0  0  0  0  0
    1.3420    5.2279  -20.1508 N   0  0  0  0  0  0  0  0  0  0  0  0
    0.4136    6.0599  -20.8212 C   0  0  0  0  0  0  0  0  0  0  0  0
   -0.6667    6.6624  -20.2165 C   0  0  0  0  0  0  0  0  0  0  0  0
   -1.5486    7.4457  -20.9443 C   0  0  0  0  0  0  0  0  0  0  0  0
   -1.3431    7.6169  -22.2583 N   0  0  0  0  0  0  0  0  0  0  0  0
   -0.2909    7.0310  -22.8550 C   0  0  0  0  0  0  0  0  0  0  0  0
   -0.2042    7.2587  -24.2756 N   0  0  0  0  0  0  0  0  0  0  0  0
    0.9489    6.7609  -24.9364 C   0  0  0  0  0  0  0  0  0  0  0  0
    0.9467    6.7008  -26.3151 C   0  0  0  0  0  0  0  0  0  0  0  0
    2.0251    6.2482  -27.0190 C   0  0  0  0  0  0  0  0  0  0  0  0
    3.1642    5.8304  -26.3443 C   0  0  0  0  0  0  0  0  0  0  0  0
    3.1958    5.8788  -24.9750 C   0  0  0  0  0  0  0  0  0  0  0  0
    2.0963    6.3408  -24.2792 C   0  0  0  0  0  0  0  0  0  0  0  0
    4.5354    5.3803  -24.5187 C   0  0  0  0  0  0  0  0  0  0  0  0
    5.2373    5.0263  -25.7670 C   0  0  0  0  0  0  0  0  0  0  0  0
    6.4139    4.5420  -25.7951 O   0  0  0  0  0  0  0  0  0  0  0  0
    4.3813    5.3212  -26.8584 N   0  0  0  0  0  0  0  0  0  0  0  0
    0.5488    6.2863  -22.1600 N   0  0  0  0  0  0  0  0  0  0  0  0
   -0.0956    5.6801  -15.5465 S   0  0  0  0  0  6  0  0  0  0  0  0
   -1.0606    4.6113  -16.6095 C   0  0  0  0  0  0  0  0  0  0  0  0
   -0.3844    5.3117  -14.1050 O   0  0  0  0  0  0  0  0  0  0  0  0
   -0.4317    7.1009  -15.8007 O   0  0  0  0  0  0  0  0  0  0  0  0
  1  2  1  0
  2  3  1  0
  3  4  2  0
  4  5  1  0
  5  6  2  0
  6  7  1  0
  7  8  2  0
  8  9  1  0
  9 10  1  0
 10 11  1  0
 11 12  2  0
 12 13  1  0
 13 14  2  0
 14 15  1  0
 15 16  1  0
 16 17  1  0
 17 18  2  0
 18 19  1  0
 19 20  2  0
 20 21  1  0
 21 22  2  0
 21 23  1  0
 23 24  1  0
 24 25  2  0
 24 26  1  0
 15 27  2  0
  2 28  1  0
 28 29  1  0
 28 30  2  0
 28 31  2  0
  8  3  1  0
 27 11  1  0
 22 17  1  0
 26 20  1  0
M  END
$$$$
