
     RDKit          3D

 31 34  0  0  0  0  0  0  0  0999 V2000
    5.4073    4.2010  -19.2737 C   0  0  0  0  0  0  0  0  0  0  0  0
    4.6350    4.5224  -18.0717 N   0  0  0  0  0  0  0  0  0  0  0  0
    4.0598    5.8178  -17.9123 C   0  0  0  0  0  0  0  0  0  0  0  0
    4.7940    6.6602  -17.1312 N   0  0  0  0  0  0  0  0  0  0  0  0
    4.3968    7.9109  -16.8568 C   0  0  0  0  0  0  0  0  0  0  0  0
    3.2060    8.3333  -17.3934 C   0  0  0  0  0  0  0  0  0  0  0  0
    2.4421    7.4852  -18.1929 C   0  0  0  0  0  0  0  0  0  0  0  0
    2.8709    6.1871  -18.4672 C   0  0  0  0  0  0  0  0  0  0  0  0
    2.1027    5.2204  -19.2585 C   0  0  0  0  0  0  0  0  0  0  0  0
    0.6895    5.2255  -19.0631 N   0  0  0  0  0  0  0  0  0  0  0  0
   -0.1331    6.0321  -19.8855 C   0  0  0  0  0  0  0  0  0  0  0  0
   -1.1616    6.8202  -19.4199 C   0  0  0  0  0  0  0  0  0  0  0  0
   -1.9414    7.5657  -20.2900 C   0  0  0  0  0  0  0  0  0  0  0  0
   -1.6873    7.5157  -21.6056 N   0  0  0  0  0  0  0  0  0  0  0  0
   -0.6853    6.7477  -22.0669 C   0  0  0  0  0  0  0  0  0  0  0  0
   -0.5409    6.7486  -23.5010 N   0  0  0  0  0  0  0  0  0  0  0  0
    0.7539    6.4798  -24.0160 C   0  0  0  0  0  0  0  0  0  0  0  0
    1.7705    6.1872  -23.1298 C   0  0  0  0  0  0  0  0  0  0  0  0
    3.0368    5.9032  -23.5531 C   0  0  0  0  0  0  0  0  0  0  0  0
    3.3282    5.9064  -24.9104 C   0  0  0  0  0  0  0  0  0  0  0  0
    2.3388    6.1931  -25.8144 C   0  0  0  0  0  0  0  0  0  0  0  0
    1.0632    6.4768  -25.3686 C   0  0  0  0  0  0  0  0  0  0  0  0
    2.9268    6.1187  -27.1928 C   0  0  0  0  0  0  0  0  0  0  0  0
    4.3463    5.7869  -26.9663 C   0  0  0  0  0  0  0  0  0  0  0  0
    5.1927    5.6540  -27.9075 O   0  0  0  0  0  0  0  0  0  0  0  0
    4.5556    5.6547  -25.5701 N   0  0  0  0  0  0  0  0  0  0  0  0
    0.0573    6.0393  -21.2367 N   0  0  0  0  0  0  0  0  0  0  0  0
    4.4524    3.3002  -16.8828 S   0  0  0  0  0  6  0  0  0  0  0  0
    5.5473    3.6909  -15.5219 C   0  0  0  0  0  0  0  0  0  0  0  0
    3.0240    3.3443  -16.3781 O   0  0  0  0  0  0  0  0  0  0  0  0
    4.7712    1.9621  -17.4343 O   0  0  0  0  0  0  0  0  0  0  0  0
  1  2  1  0
  2  3  1  0
  3  4  2  0
  4  5  1  0
  5  6  2  0
  6  7  1  0
  7  8  2  0
  8  9  1  0
  9 10  1  0
 10 11  1  0
 11 12  2  0
 12 13  1  0
 13 14  2  0
 14 15  1  0
 15 16  1  0
 16 17  1  0
 17 18  2  0
 18 19  1  0
 19 20  2  0
 20 21  1  0
 21 22  2  0
 21 23  1  0
 23 24  1  0
 24 25  2  0
 24 26  1  0
 15 27  2  0
  2 28  1  0
 28 29  1  0
 28 30  2  0
 28 31  2  0
  8  3  1  0
 27 11  1  0
 22 17  1  0
 26 20  1  0
M  END
$$$$
