
     RDKit          3D

 31 34  0  0  0  0  0  0  0  0999 V2000
   37.5941    0.5806    9.1028 C   0  0  0  0  0  0  0  0  0  0  0  0
   38.5128    1.7139    8.9745 N   0  0  0  0  0  0  0  0  0  0  0  0
   39.3098    1.8635    7.8011 C   0  0  0  0  0  0  0  0  0  0  0  0
   38.6520    2.4317    6.7507 N   0  0  0  0  0  0  0  0  0  0  0  0
   39.2388    2.6317    5.5620 C   0  0  0  0  0  0  0  0  0  0  0  0
   40.5479    2.2422    5.4242 C   0  0  0  0  0  0  0  0  0  0  0  0
   41.2351    1.6587    6.4870 C   0  0  0  0  0  0  0  0  0  0  0  0
   40.6082    1.4579    7.7162 C   0  0  0  0  0  0  0  0  0  0  0  0
   41.2472    0.8085    8.8654 C   0  0  0  0  0  0  0  0  0  0  0  0
   42.0793    1.6362    9.6764 N   0  0  0  0  0  0  0  0  0  0  0  0
   42.7688    1.0778   10.7792 C   0  0  0  0  0  0  0  0  0  0  0  0
   42.3716    1.2099   12.0908 C   0  0  0  0  0  0  0  0  0  0  0  0
   43.1128    0.6544   13.1219 C   0  0  0  0  0  0  0  0  0  0  0  0
   44.2343   -0.0216   12.8332 N   0  0  0  0  0  0  0  0  0  0  0  0
   44.6283   -0.1536   11.5550 C   0  0  0  0  0  0  0  0  0  0  0  0
   45.8692   -0.8657   11.3809 N   0  0  0  0  0  0  0  0  0  0  0  0
   46.1872   -1.2890   10.0641 C   0  0  0  0  0  0  0  0  0  0  0  0
   47.3807   -1.9483    9.8516 C   0  0  0  0  0  0  0  0  0  0  0  0
   47.7460   -2.3980    8.6156 C   0  0  0  0  0  0  0  0  0  0  0  0
   46.9057   -2.1928    7.5298 C   0  0  0  0  0  0  0  0  0  0  0  0
   45.7136   -1.5412    7.7103 C   0  0  0  0  0  0  0  0  0  0  0  0
   45.3594   -1.0943    8.9678 C   0  0  0  0  0  0  0  0  0  0  0  0
   45.0140   -1.4669    6.3850 C   0  0  0  0  0  0  0  0  0  0  0  0
   45.9448   -2.1191    5.4444 C   0  0  0  0  0  0  0  0  0  0  0  0
   45.7120   -2.2381    4.1988 O   0  0  0  0  0  0  0  0  0  0  0  0
   47.0795   -2.5580    6.1728 N   0  0  0  0  0  0  0  0  0  0  0  0
   43.9204    0.3751   10.5741 N   0  0  0  0  0  0  0  0  0  0  0  0
   38.5912    2.8358   10.2690 S   0  0  0  0  0  6  0  0  0  0  0  0
   38.7397    4.4750    9.5659 C   0  0  0  0  0  0  0  0  0  0  0  0
   37.2874    2.7591   11.0379 O   0  0  0  0  0  0  0  0  0  0  0  0
   39.7410    2.5497   11.1592 O   0  0  0  0  0  0  0  0  0  0  0  0
  1  2  1  0
  2  3  1  0
  3  4  2  0
  4  5  1  0
  5  6  2  0
  6  7  1  0
  7  8  2  0
  8  9  1  0
  9 10  1  0
 10 11  1  0
 11 12  2  0
 12 13  1  0
 13 14  2  0
 14 15  1  0
 15 16  1  0
 16 17  1  0
 17 18  2  0
 18 19  1  0
 19 20  2  0
 20 21  1  0
 21 22  2  0
 21 23  1  0
 23 24  1  0
 24 25  2  0
 24 26  1  0
 15 27  2  0
  2 28  1  0
 28 29  1  0
 28 30  2  0
 28 31  2  0
  8  3  1  0
 27 11  1  0
 22 17  1  0
 26 20  1  0
M  END
$$$$
