6T88_MWQ_holo_aligned_esmfold_protein
     RDKit          3D

 10 10  0  0  0  0  0  0  0  0999 V2000
  -10.3462  -51.7676  -10.9680 O   0  0  0  0  0  0  0  0  0  0  0  0
  -10.8121  -52.8531  -10.6445 C   0  0  0  0  0  0  0  0  0  0  0  0
  -10.6449  -53.9829  -11.3838 O   0  0  0  0  0  0  0  0  0  0  0  0
  -11.6544  -52.9085   -9.3612 C   0  0  0  0  0  0  0  0  0  0  0  0
  -11.0013  -52.1536   -8.2010 C   0  0  0  0  0  0  0  0  0  0  0  0
   -9.6680  -52.7415   -7.8284 C   0  0  0  0  0  0  0  0  0  0  0  0
   -9.3022  -54.0605   -7.7927 C   0  0  0  0  0  0  0  0  0  0  0  0
   -7.9520  -54.1774   -7.4889 N   0  0  0  0  0  0  0  0  0  0  0  0
   -7.5141  -52.9502   -7.3034 C   0  0  0  0  0  0  0  0  0  0  0  0
   -8.5337  -52.0341   -7.4942 N   0  0  0  0  0  0  0  0  0  0  0  0
  1  2  2  0
  2  3  1  0
  2  4  1  0
  4  5  1  0
  5  6  1  0
  6  7  2  0
  7  8  1  0
  8  9  2  0
  9 10  1  0
 10  6  1  0
M  END
