
     RDKit          3D

 10 10  0  0  0  0  0  0  0  0999 V2000
  -12.1922  -50.7046   -5.8292 O   0  0  0  0  0  0  0  0  0  0  0  0
  -11.8297  -51.6925   -6.5513 C   0  0  0  0  0  0  0  0  0  0  0  0
  -11.8935  -51.5354   -7.9123 O   0  0  0  0  0  0  0  0  0  0  0  0
  -11.3859  -52.8846   -5.8143 C   0  0  0  0  0  0  0  0  0  0  0  0
  -10.4258  -53.7551   -6.5625 C   0  0  0  0  0  0  0  0  0  0  0  0
   -9.1047  -53.1017   -6.7598 C   0  0  0  0  0  0  0  0  0  0  0  0
   -7.8818  -53.7715   -6.7459 C   0  0  0  0  0  0  0  0  0  0  0  0
   -6.8941  -52.8882   -6.9594 N   0  0  0  0  0  0  0  0  0  0  0  0
   -7.4723  -51.7022   -7.1031 C   0  0  0  0  0  0  0  0  0  0  0  0
   -8.8087  -51.8132   -6.9851 N   0  0  0  0  0  0  0  0  0  0  0  0
  1  2  2  0
  2  3  1  0
  2  4  1  0
  4  5  1  0
  5  6  1  0
  6  7  2  0
  7  8  1  0
  8  9  2  0
  9 10  1  0
 10  6  1  0
M  END
$$$$
