
     RDKit          3D

 10 10  0  0  0  0  0  0  0  0999 V2000
  -13.1339  -50.5411   -5.8261 O   0  0  0  0  0  0  0  0  0  0  0  0
  -12.2563  -51.3364   -6.3017 C   0  0  0  0  0  0  0  0  0  0  0  0
  -11.2859  -50.7960   -7.1063 O   0  0  0  0  0  0  0  0  0  0  0  0
  -12.4071  -52.7471   -5.9164 C   0  0  0  0  0  0  0  0  0  0  0  0
  -11.6266  -53.7072   -6.7582 C   0  0  0  0  0  0  0  0  0  0  0  0
  -11.7159  -55.1035   -6.2548 C   0  0  0  0  0  0  0  0  0  0  0  0
  -11.5651  -56.2406   -7.0477 C   0  0  0  0  0  0  0  0  0  0  0  0
  -11.6995  -57.3331   -6.2798 N   0  0  0  0  0  0  0  0  0  0  0  0
  -11.9270  -56.9019   -5.0455 C   0  0  0  0  0  0  0  0  0  0  0  0
  -11.9404  -55.5562   -5.0125 N   0  0  0  0  0  0  0  0  0  0  0  0
  1  2  2  0
  2  3  1  0
  2  4  1  0
  4  5  1  0
  5  6  1  0
  6  7  2  0
  7  8  1  0
  8  9  2  0
  9 10  1  0
 10  6  1  0
M  END
$$$$
