
     RDKit          3D

 10 10  0  0  0  0  0  0  0  0999 V2000
  -11.3124  -50.4311   -7.8334 O   0  0  0  0  0  0  0  0  0  0  0  0
  -11.5897  -51.1030   -6.7843 C   0  0  0  0  0  0  0  0  0  0  0  0
  -11.8979  -50.3992   -5.6481 O   0  0  0  0  0  0  0  0  0  0  0  0
  -11.5400  -52.5642   -6.9383 C   0  0  0  0  0  0  0  0  0  0  0  0
  -10.6419  -53.2607   -5.9648 C   0  0  0  0  0  0  0  0  0  0  0  0
   -9.2070  -53.1498   -6.3390 C   0  0  0  0  0  0  0  0  0  0  0  0
   -8.5501  -51.9487   -6.6043 C   0  0  0  0  0  0  0  0  0  0  0  0
   -7.2675  -52.2061   -6.9045 N   0  0  0  0  0  0  0  0  0  0  0  0
   -7.1191  -53.5229   -6.8315 C   0  0  0  0  0  0  0  0  0  0  0  0
   -8.2822  -54.1090   -6.4910 N   0  0  0  0  0  0  0  0  0  0  0  0
  1  2  2  0
  2  3  1  0
  2  4  1  0
  4  5  1  0
  5  6  1  0
  6  7  2  0
  7  8  1  0
  8  9  2  0
  9 10  1  0
 10  6  1  0
M  END
$$$$
