
     RDKit          3D

 10 10  0  0  0  0  0  0  0  0999 V2000
  -12.8011  -51.2881   -5.3525 O   0  0  0  0  0  0  0  0  0  0  0  0
  -12.0671  -51.6696   -6.3244 C   0  0  0  0  0  0  0  0  0  0  0  0
  -11.7424  -50.7346   -7.2739 O   0  0  0  0  0  0  0  0  0  0  0  0
  -11.6627  -53.0826   -6.2942 C   0  0  0  0  0  0  0  0  0  0  0  0
  -10.7795  -53.4999   -7.4278 C   0  0  0  0  0  0  0  0  0  0  0  0
   -9.3509  -53.1667   -7.1847 C   0  0  0  0  0  0  0  0  0  0  0  0
   -8.3685  -54.0973   -6.8481 C   0  0  0  0  0  0  0  0  0  0  0  0
   -7.1936  -53.4645   -6.7058 N   0  0  0  0  0  0  0  0  0  0  0  0
   -7.4251  -52.1795   -6.9440 C   0  0  0  0  0  0  0  0  0  0  0  0
   -8.7245  -51.9819   -7.2350 N   0  0  0  0  0  0  0  0  0  0  0  0
  1  2  2  0
  2  3  1  0
  2  4  1  0
  4  5  1  0
  5  6  1  0
  6  7  2  0
  7  8  1  0
  8  9  2  0
  9 10  1  0
 10  6  1  0
M  END
$$$$
