
     RDKit          3D

 10 10  0  0  0  0  0  0  0  0999 V2000
  -13.9622  -49.5492   -5.6300 O   0  0  0  0  0  0  0  0  0  0  0  0
  -13.3342  -50.6577   -5.7056 C   0  0  0  0  0  0  0  0  0  0  0  0
  -13.6183  -51.6089   -4.7591 O   0  0  0  0  0  0  0  0  0  0  0  0
  -12.3755  -50.7665   -6.8148 C   0  0  0  0  0  0  0  0  0  0  0  0
  -11.5957  -52.0436   -6.8381 C   0  0  0  0  0  0  0  0  0  0  0  0
  -10.3478  -51.9302   -7.6387 C   0  0  0  0  0  0  0  0  0  0  0  0
   -9.3851  -50.9365   -7.4652 C   0  0  0  0  0  0  0  0  0  0  0  0
   -8.3896  -51.1303   -8.3443 N   0  0  0  0  0  0  0  0  0  0  0  0
   -8.7118  -52.2082   -9.0484 C   0  0  0  0  0  0  0  0  0  0  0  0
   -9.8929  -52.7043   -8.6349 N   0  0  0  0  0  0  0  0  0  0  0  0
  1  2  2  0
  2  3  1  0
  2  4  1  0
  4  5  1  0
  5  6  1  0
  6  7  2  0
  7  8  1  0
  8  9  2  0
  9 10  1  0
 10  6  1  0
M  END
$$$$
