
     RDKit          3D

 10 10  0  0  0  0  0  0  0  0999 V2000
  -12.6116  -50.9500   -5.6471 O   0  0  0  0  0  0  0  0  0  0  0  0
  -11.6351  -51.4098   -6.3283 C   0  0  0  0  0  0  0  0  0  0  0  0
  -11.1310  -50.6132   -7.3245 O   0  0  0  0  0  0  0  0  0  0  0  0
  -11.1756  -52.7531   -5.9467 C   0  0  0  0  0  0  0  0  0  0  0  0
  -10.5174  -53.5206   -7.0499 C   0  0  0  0  0  0  0  0  0  0  0  0
   -9.0341  -53.5000   -6.9472 C   0  0  0  0  0  0  0  0  0  0  0  0
   -8.2587  -52.3410   -6.9370 C   0  0  0  0  0  0  0  0  0  0  0  0
   -6.9643  -52.6789   -6.8288 N   0  0  0  0  0  0  0  0  0  0  0  0
   -6.9231  -54.0043   -6.7725 C   0  0  0  0  0  0  0  0  0  0  0  0
   -8.1658  -54.5168   -6.8430 N   0  0  0  0  0  0  0  0  0  0  0  0
  1  2  2  0
  2  3  1  0
  2  4  1  0
  4  5  1  0
  5  6  1  0
  6  7  2  0
  7  8  1  0
  8  9  2  0
  9 10  1  0
 10  6  1  0
M  END
$$$$
