
     RDKit          3D

 10 10  0  0  0  0  0  0  0  0999 V2000
  -12.2370  -51.5240   -8.0987 O   0  0  0  0  0  0  0  0  0  0  0  0
  -11.8151  -51.6650   -6.9025 C   0  0  0  0  0  0  0  0  0  0  0  0
  -11.6663  -50.5289   -6.1486 O   0  0  0  0  0  0  0  0  0  0  0  0
  -11.5412  -53.0486   -6.4881 C   0  0  0  0  0  0  0  0  0  0  0  0
  -10.3972  -53.1960   -5.5346 C   0  0  0  0  0  0  0  0  0  0  0  0
   -9.0846  -52.9273   -6.1795 C   0  0  0  0  0  0  0  0  0  0  0  0
   -8.7344  -51.7219   -6.7867 C   0  0  0  0  0  0  0  0  0  0  0  0
   -7.4826  -51.8160   -7.2615 N   0  0  0  0  0  0  0  0  0  0  0  0
   -7.0567  -53.0376   -6.9650 C   0  0  0  0  0  0  0  0  0  0  0  0
   -8.0130  -53.7230   -6.3108 N   0  0  0  0  0  0  0  0  0  0  0  0
  1  2  2  0
  2  3  1  0
  2  4  1  0
  4  5  1  0
  5  6  1  0
  6  7  2  0
  7  8  1  0
  8  9  2  0
  9 10  1  0
 10  6  1  0
M  END
$$$$
