
     RDKit          3D

 10 10  0  0  0  0  0  0  0  0999 V2000
  -12.9179  -51.3009   -5.2718 O   0  0  0  0  0  0  0  0  0  0  0  0
  -12.2532  -51.5621   -6.3296 C   0  0  0  0  0  0  0  0  0  0  0  0
  -11.9276  -50.5089   -7.1456 O   0  0  0  0  0  0  0  0  0  0  0  0
  -11.9214  -52.9797   -6.5334 C   0  0  0  0  0  0  0  0  0  0  0  0
  -10.9820  -53.2403   -7.6687 C   0  0  0  0  0  0  0  0  0  0  0  0
   -9.5864  -52.8357   -7.3530 C   0  0  0  0  0  0  0  0  0  0  0  0
   -8.6153  -53.6890   -6.8302 C   0  0  0  0  0  0  0  0  0  0  0  0
   -7.4706  -53.0069   -6.6702 N   0  0  0  0  0  0  0  0  0  0  0  0
   -7.7097  -51.7665   -7.0773 C   0  0  0  0  0  0  0  0  0  0  0  0
   -8.9843  -51.6455   -7.4932 N   0  0  0  0  0  0  0  0  0  0  0  0
  1  2  2  0
  2  3  1  0
  2  4  1  0
  4  5  1  0
  5  6  1  0
  6  7  2  0
  7  8  1  0
  8  9  2  0
  9 10  1  0
 10  6  1  0
M  END
$$$$
