
     RDKit          3D

 10 10  0  0  0  0  0  0  0  0999 V2000
  -12.8114  -51.1368   -5.3438 O   0  0  0  0  0  0  0  0  0  0  0  0
  -12.1256  -51.5412   -6.3413 C   0  0  0  0  0  0  0  0  0  0  0  0
  -11.7766  -50.6097   -7.2856 O   0  0  0  0  0  0  0  0  0  0  0  0
  -11.7976  -52.9742   -6.3433 C   0  0  0  0  0  0  0  0  0  0  0  0
  -10.8993  -53.4038   -7.4604 C   0  0  0  0  0  0  0  0  0  0  0  0
   -9.4694  -53.1036   -7.1843 C   0  0  0  0  0  0  0  0  0  0  0  0
   -8.5178  -54.0558   -6.8206 C   0  0  0  0  0  0  0  0  0  0  0  0
   -7.3318  -53.4504   -6.6526 N   0  0  0  0  0  0  0  0  0  0  0  0
   -7.5269  -52.1614   -6.9013 C   0  0  0  0  0  0  0  0  0  0  0  0
   -8.8138  -51.9342   -7.2242 N   0  0  0  0  0  0  0  0  0  0  0  0
  1  2  2  0
  2  3  1  0
  2  4  1  0
  4  5  1  0
  5  6  1  0
  6  7  2  0
  7  8  1  0
  8  9  2  0
  9 10  1  0
 10  6  1  0
M  END
$$$$
