
     RDKit          3D

 10 10  0  0  0  0  0  0  0  0999 V2000
  -12.2743  -50.1350   -6.0875 O   0  0  0  0  0  0  0  0  0  0  0  0
  -11.8701  -51.2355   -6.5920 C   0  0  0  0  0  0  0  0  0  0  0  0
  -12.0931  -51.4348   -7.9306 O   0  0  0  0  0  0  0  0  0  0  0  0
  -11.2098  -52.1556   -5.6546 C   0  0  0  0  0  0  0  0  0  0  0  0
  -10.7351  -53.4341   -6.2705 C   0  0  0  0  0  0  0  0  0  0  0  0
   -9.2647  -53.4443   -6.4917 C   0  0  0  0  0  0  0  0  0  0  0  0
   -8.4668  -52.3022   -6.5526 C   0  0  0  0  0  0  0  0  0  0  0  0
   -7.1917  -52.6672   -6.7577 N   0  0  0  0  0  0  0  0  0  0  0  0
   -7.1839  -53.9927   -6.8240 C   0  0  0  0  0  0  0  0  0  0  0  0
   -8.4291  -54.4788   -6.6654 N   0  0  0  0  0  0  0  0  0  0  0  0
  1  2  2  0
  2  3  1  0
  2  4  1  0
  4  5  1  0
  5  6  1  0
  6  7  2  0
  7  8  1  0
  8  9  2  0
  9 10  1  0
 10  6  1  0
M  END
$$$$
