
     RDKit          3D

 10 10  0  0  0  0  0  0  0  0999 V2000
  -12.5577  -50.9946   -5.4481 O   0  0  0  0  0  0  0  0  0  0  0  0
  -12.0070  -51.6412   -6.4008 C   0  0  0  0  0  0  0  0  0  0  0  0
  -11.9310  -51.0214   -7.6219 O   0  0  0  0  0  0  0  0  0  0  0  0
  -11.5211  -52.9847   -6.0545 C   0  0  0  0  0  0  0  0  0  0  0  0
  -10.6415  -53.6126   -7.0896 C   0  0  0  0  0  0  0  0  0  0  0  0
   -9.2359  -53.1349   -7.0033 C   0  0  0  0  0  0  0  0  0  0  0  0
   -8.1380  -53.9532   -6.7399 C   0  0  0  0  0  0  0  0  0  0  0  0
   -7.0232  -53.2058   -6.7372 N   0  0  0  0  0  0  0  0  0  0  0  0
   -7.4031  -51.9595   -6.9899 C   0  0  0  0  0  0  0  0  0  0  0  0
   -8.7379  -51.8987   -7.1532 N   0  0  0  0  0  0  0  0  0  0  0  0
  1  2  2  0
  2  3  1  0
  2  4  1  0
  4  5  1  0
  5  6  1  0
  6  7  2  0
  7  8  1  0
  8  9  2  0
  9 10  1  0
 10  6  1  0
M  END
$$$$
