
     RDKit          3D

 10 10  0  0  0  0  0  0  0  0999 V2000
  -12.4010  -50.5289   -5.6472 O   0  0  0  0  0  0  0  0  0  0  0  0
  -12.0010  -51.4693   -6.4117 C   0  0  0  0  0  0  0  0  0  0  0  0
  -12.1868  -51.3070   -7.7609 O   0  0  0  0  0  0  0  0  0  0  0  0
  -11.3856  -52.6181   -5.7314 C   0  0  0  0  0  0  0  0  0  0  0  0
  -10.4803  -53.4389   -6.5952 C   0  0  0  0  0  0  0  0  0  0  0  0
   -9.1583  -52.7914   -6.8056 C   0  0  0  0  0  0  0  0  0  0  0  0
   -7.9298  -53.4132   -6.5851 C   0  0  0  0  0  0  0  0  0  0  0  0
   -6.9425  -52.5518   -6.8761 N   0  0  0  0  0  0  0  0  0  0  0  0
   -7.5263  -51.4257   -7.2666 C   0  0  0  0  0  0  0  0  0  0  0  0
   -8.8659  -51.5532   -7.2297 N   0  0  0  0  0  0  0  0  0  0  0  0
  1  2  2  0
  2  3  1  0
  2  4  1  0
  4  5  1  0
  5  6  1  0
  6  7  2  0
  7  8  1  0
  8  9  2  0
  9 10  1  0
 10  6  1  0
M  END
$$$$
