
     RDKit          3D

 10 10  0  0  0  0  0  0  0  0999 V2000
  -12.8093  -50.8276   -5.4767 O   0  0  0  0  0  0  0  0  0  0  0  0
  -12.0703  -51.4186   -6.3332 C   0  0  0  0  0  0  0  0  0  0  0  0
  -11.8798  -50.7939   -7.5392 O   0  0  0  0  0  0  0  0  0  0  0  0
  -11.5145  -52.7101   -5.9040 C   0  0  0  0  0  0  0  0  0  0  0  0
  -10.6506  -53.3837   -6.9236 C   0  0  0  0  0  0  0  0  0  0  0  0
   -9.2871  -52.7939   -6.9888 C   0  0  0  0  0  0  0  0  0  0  0  0
   -8.1106  -53.4912   -6.7166 C   0  0  0  0  0  0  0  0  0  0  0  0
   -7.0640  -52.6657   -6.8734 N   0  0  0  0  0  0  0  0  0  0  0  0
   -7.5613  -51.4887   -7.2320 C   0  0  0  0  0  0  0  0  0  0  0  0
   -8.9041  -51.5485   -7.3064 N   0  0  0  0  0  0  0  0  0  0  0  0
  1  2  2  0
  2  3  1  0
  2  4  1  0
  4  5  1  0
  5  6  1  0
  6  7  2  0
  7  8  1  0
  8  9  2  0
  9 10  1  0
 10  6  1  0
M  END
$$$$
