
     RDKit          3D

 10 10  0  0  0  0  0  0  0  0999 V2000
  -12.6293  -51.0125   -7.1350 O   0  0  0  0  0  0  0  0  0  0  0  0
  -12.1042  -51.9827   -6.4931 C   0  0  0  0  0  0  0  0  0  0  0  0
  -11.8466  -51.7903   -5.1597 O   0  0  0  0  0  0  0  0  0  0  0  0
  -11.8422  -53.1947   -7.2828 C   0  0  0  0  0  0  0  0  0  0  0  0
  -10.5776  -53.9090   -6.9224 C   0  0  0  0  0  0  0  0  0  0  0  0
   -9.3781  -53.0412   -7.0607 C   0  0  0  0  0  0  0  0  0  0  0  0
   -8.1211  -53.3412   -6.5369 C   0  0  0  0  0  0  0  0  0  0  0  0
   -7.2682  -52.3523   -6.8468 N   0  0  0  0  0  0  0  0  0  0  0  0
   -7.9615  -51.4592   -7.5418 C   0  0  0  0  0  0  0  0  0  0  0  0
   -9.2392  -51.8599   -7.6803 N   0  0  0  0  0  0  0  0  0  0  0  0
  1  2  2  0
  2  3  1  0
  2  4  1  0
  4  5  1  0
  5  6  1  0
  6  7  2  0
  7  8  1  0
  8  9  2  0
  9 10  1  0
 10  6  1  0
M  END
$$$$
