
     RDKit          3D

 10 10  0  0  0  0  0  0  0  0999 V2000
  -12.4062  -50.6354   -6.5857 O   0  0  0  0  0  0  0  0  0  0  0  0
  -12.2212  -51.8562   -6.2624 C   0  0  0  0  0  0  0  0  0  0  0  0
  -12.2270  -52.1620   -4.9253 O   0  0  0  0  0  0  0  0  0  0  0  0
  -12.0235  -52.7842   -7.3852 C   0  0  0  0  0  0  0  0  0  0  0  0
  -10.8856  -53.7398   -7.2076 C   0  0  0  0  0  0  0  0  0  0  0  0
   -9.5742  -53.0462   -7.1077 C   0  0  0  0  0  0  0  0  0  0  0  0
   -8.4106  -53.6249   -6.6020 C   0  0  0  0  0  0  0  0  0  0  0  0
   -7.4129  -52.7290   -6.6600 N   0  0  0  0  0  0  0  0  0  0  0  0
   -7.9276  -51.6235   -7.1838 C   0  0  0  0  0  0  0  0  0  0  0  0
   -9.2335  -51.7978   -7.4602 N   0  0  0  0  0  0  0  0  0  0  0  0
  1  2  2  0
  2  3  1  0
  2  4  1  0
  4  5  1  0
  5  6  1  0
  6  7  2  0
  7  8  1  0
  8  9  2  0
  9 10  1  0
 10  6  1  0
M  END
$$$$
