
     RDKit          3D

 10 10  0  0  0  0  0  0  0  0999 V2000
  -12.3456  -50.4381   -6.5715 O   0  0  0  0  0  0  0  0  0  0  0  0
  -12.1226  -51.6691   -6.3189 C   0  0  0  0  0  0  0  0  0  0  0  0
  -12.0994  -52.0479   -5.0009 O   0  0  0  0  0  0  0  0  0  0  0  0
  -11.9172  -52.5282   -7.4940 C   0  0  0  0  0  0  0  0  0  0  0  0
  -10.9195  -53.6254   -7.2939 C   0  0  0  0  0  0  0  0  0  0  0  0
   -9.5384  -53.1075   -7.1061 C   0  0  0  0  0  0  0  0  0  0  0  0
   -8.4761  -53.8551   -6.5989 C   0  0  0  0  0  0  0  0  0  0  0  0
   -7.3749  -53.0885   -6.5665 N   0  0  0  0  0  0  0  0  0  0  0  0
   -7.7286  -51.8988   -7.0365 C   0  0  0  0  0  0  0  0  0  0  0  0
   -9.0334  -51.8928   -7.3673 N   0  0  0  0  0  0  0  0  0  0  0  0
  1  2  2  0
  2  3  1  0
  2  4  1  0
  4  5  1  0
  5  6  1  0
  6  7  2  0
  7  8  1  0
  8  9  2  0
  9 10  1  0
 10  6  1  0
M  END
$$$$
