8FLV_ZB9_holo_aligned_esmfold_protein
     RDKit          3D

 29 32  0  0  0  0  0  0  0  0999 V2000
  -13.9894    6.9350  -15.2449 C   0  0  0  0  0  0  0  0  0  0  0  0
  -13.8682    6.8458  -16.7170 N   0  0  0  0  0  0  0  0  0  0  0  0
  -14.8665    6.1767  -17.4445 C   0  0  0  0  0  0  0  0  0  0  0  0
  -15.9879    5.8697  -16.7746 N   0  0  0  0  0  0  0  0  0  0  0  0
  -17.0177    5.3015  -17.4281 C   0  0  0  0  0  0  0  0  0  0  0  0
  -17.0216    5.0264  -18.7458 N   0  0  0  0  0  0  0  0  0  0  0  0
  -15.8943    5.3140  -19.4082 C   0  0  0  0  0  0  0  0  0  0  0  0
  -15.6251    5.1600  -20.7554 N   0  0  0  0  0  0  0  0  0  0  0  0
  -14.3238    5.5254  -21.0574 C   0  0  0  0  0  0  0  0  0  0  0  0
  -13.7566    5.9388  -19.8844 C   0  0  0  0  0  0  0  0  0  0  0  0
  -14.7649    5.8511  -18.8122 C   0  0  0  0  0  0  0  0  0  0  0  0
  -12.9427    7.7966  -17.3924 C   0  0  2  0  0  0  0  0  0  0  0  0
  -11.5136    7.2059  -17.3822 C   0  0  0  0  0  0  0  0  0  0  0  0
  -10.5111    8.2965  -17.7614 C   0  0  0  0  0  0  0  0  0  0  0  0
  -10.4750    9.3676  -16.6629 C   0  0  0  0  0  0  0  0  0  0  0  0
  -11.7911    9.5790  -16.0394 N   0  0  0  0  0  0  0  0  0  0  0  0
  -11.8939   10.0284  -14.7212 C   0  0  0  0  0  0  0  0  0  0  0  0
  -13.0135   10.1793  -14.2251 O   0  0  0  0  0  0  0  0  0  0  0  0
  -10.6288   10.3255  -13.8696 C   0  0  0  0  0  0  0  0  0  0  0  0
  -10.8623   10.8263  -12.4927 N   0  0  0  0  0  0  0  0  0  0  0  0
   -9.8316   11.3667  -11.7364 C   0  0  0  0  0  0  0  0  0  0  0  0
  -10.1550   12.1676  -10.6438 C   0  0  0  0  0  0  0  0  0  0  0  0
   -9.1490   12.7513   -9.8765 C   0  0  0  0  0  0  0  0  0  0  0  0
   -9.5675   13.8116   -8.5619 Cl  0  0  0  0  0  0  0  0  0  0  0  0
   -7.8126   12.5120  -10.1975 C   0  0  0  0  0  0  0  0  0  0  0  0
   -7.4742   11.7193  -11.2870 C   0  0  0  0  0  0  0  0  0  0  0  0
   -5.8022   11.4544  -11.7041 Cl  0  0  0  0  0  0  0  0  0  0  0  0
   -8.4838   11.1455  -12.0521 C   0  0  0  0  0  0  0  0  0  0  0  0
  -12.9753    9.2541  -16.8477 C   0  0  0  0  0  0  0  0  0  0  0  0
  1  2  1  0
  2  3  1  0
  3  4  2  0
  4  5  1  0
  5  6  2  0
  6  7  1  0
  7  8  1  0
  8  9  1  0
  9 10  2  0
 10 11  1  0
 12  2  1  1
 12 13  1  0
 13 14  1  0
 14 15  1  0
 15 16  1  0
 16 17  1  0
 17 18  2  0
 17 19  1  0
 19 20  1  0
 20 21  1  0
 21 22  2  0
 22 23  1  0
 23 24  1  0
 23 25  2  0
 25 26  1  0
 26 27  1  0
 26 28  2  0
 16 29  1  0
 11  3  1  0
 29 12  1  0
 11  7  2  0
 28 21  1  0
M  END
