
     RDKit          3D

 29 32  0  0  0  0  0  0  0  0999 V2000
  -12.7394    6.6458  -18.6097 C   0  0  0  0  0  0  0  0  0  0  0  0
  -13.9098    6.8807  -17.7783 N   0  0  0  0  0  0  0  0  0  0  0  0
  -15.0620    6.0723  -17.9765 C   0  0  0  0  0  0  0  0  0  0  0  0
  -15.3779    5.4949  -19.1611 N   0  0  0  0  0  0  0  0  0  0  0  0
  -16.4690    4.7258  -19.2854 C   0  0  0  0  0  0  0  0  0  0  0  0
  -17.2551    4.5300  -18.2145 N   0  0  0  0  0  0  0  0  0  0  0  0
  -16.9909    5.0773  -17.0153 C   0  0  0  0  0  0  0  0  0  0  0  0
  -17.6212    5.0282  -15.8071 N   0  0  0  0  0  0  0  0  0  0  0  0
  -16.9308    5.7644  -14.9203 C   0  0  0  0  0  0  0  0  0  0  0  0
  -15.8389    6.2960  -15.5667 C   0  0  0  0  0  0  0  0  0  0  0  0
  -15.8912    5.8591  -16.8681 C   0  0  0  0  0  0  0  0  0  0  0  0
  -13.9400    7.8970  -16.7600 C   0  0  2  0  0  0  0  0  0  0  0  0
  -13.9386    9.2993  -17.2411 C   0  0  0  0  0  0  0  0  0  0  0  0
  -12.8359   10.1402  -16.6384 C   0  0  0  0  0  0  0  0  0  0  0  0
  -11.5152    9.4491  -16.6779 C   0  0  0  0  0  0  0  0  0  0  0  0
  -11.6136    8.1928  -15.9881 N   0  0  0  0  0  0  0  0  0  0  0  0
  -10.4180    7.5233  -15.6373 C   0  0  0  0  0  0  0  0  0  0  0  0
  -10.0321    6.5788  -16.3653 O   0  0  0  0  0  0  0  0  0  0  0  0
   -9.6076    7.8924  -14.4493 C   0  0  0  0  0  0  0  0  0  0  0  0
   -9.4415    6.7852  -13.5416 N   0  0  0  0  0  0  0  0  0  0  0  0
  -10.0560    6.8026  -12.2742 C   0  0  0  0  0  0  0  0  0  0  0  0
  -10.5373    8.0224  -11.7853 C   0  0  0  0  0  0  0  0  0  0  0  0
  -11.1420    8.0660  -10.5712 C   0  0  0  0  0  0  0  0  0  0  0  0
  -11.7421    9.6111   -9.9715 Cl  0  0  0  0  0  0  0  0  0  0  0  0
  -11.2815    6.9276   -9.8285 C   0  0  0  0  0  0  0  0  0  0  0  0
  -10.8184    5.7253  -10.2877 C   0  0  0  0  0  0  0  0  0  0  0  0
  -11.0004    4.2755   -9.3328 Cl  0  0  0  0  0  0  0  0  0  0  0  0
  -10.2072    5.6559  -11.5050 C   0  0  0  0  0  0  0  0  0  0  0  0
  -12.9029    7.6643  -15.6810 C   0  0  0  0  0  0  0  0  0  0  0  0
  1  2  1  0
  2  3  1  0
  3  4  2  0
  4  5  1  0
  5  6  2  0
  6  7  1  0
  7  8  1  0
  8  9  1  0
  9 10  2  0
 10 11  1  0
 12  2  1  6
 12 13  1  0
 13 14  1  0
 14 15  1  0
 15 16  1  0
 16 17  1  0
 17 18  2  0
 17 19  1  0
 19 20  1  0
 20 21  1  0
 21 22  2  0
 22 23  1  0
 23 24  1  0
 23 25  2  0
 25 26  1  0
 26 27  1  0
 26 28  2  0
 16 29  1  0
 11  3  1  0
 29 12  1  0
 11  7  2  0
 28 21  1  0
M  END
$$$$
