
     RDKit          3D

 29 32  0  0  0  0  0  0  0  0999 V2000
  -12.8077    6.2484  -18.4341 C   0  0  0  0  0  0  0  0  0  0  0  0
  -14.0500    6.5025  -17.7211 N   0  0  0  0  0  0  0  0  0  0  0  0
  -15.2252    5.8152  -18.1296 C   0  0  0  0  0  0  0  0  0  0  0  0
  -15.4120    5.3280  -19.3802 N   0  0  0  0  0  0  0  0  0  0  0  0
  -16.5345    4.6705  -19.7047 C   0  0  0  0  0  0  0  0  0  0  0  0
  -17.4827    4.4967  -18.7700 N   0  0  0  0  0  0  0  0  0  0  0  0
  -17.3514    4.9581  -17.5140 C   0  0  0  0  0  0  0  0  0  0  0  0
  -18.1537    4.9091  -16.4125 N   0  0  0  0  0  0  0  0  0  0  0  0
  -17.5405    5.5340  -15.3933 C   0  0  0  0  0  0  0  0  0  0  0  0
  -16.3246    5.9927  -15.8449 C   0  0  0  0  0  0  0  0  0  0  0  0
  -16.2228    5.6264  -17.1649 C   0  0  0  0  0  0  0  0  0  0  0  0
  -14.1294    7.4193  -16.6147 C   0  0  2  0  0  0  0  0  0  0  0  0
  -14.2355    8.8554  -16.9670 C   0  0  0  0  0  0  0  0  0  0  0  0
  -13.1817    9.7155  -16.3067 C   0  0  0  0  0  0  0  0  0  0  0  0
  -11.8172    9.1262  -16.4278 C   0  0  0  0  0  0  0  0  0  0  0  0
  -11.8137    7.8096  -15.8530 N   0  0  0  0  0  0  0  0  0  0  0  0
  -10.5673    7.1982  -15.5816 C   0  0  0  0  0  0  0  0  0  0  0  0
  -10.1721    6.2911  -16.3511 O   0  0  0  0  0  0  0  0  0  0  0  0
   -9.7146    7.5856  -14.4296 C   0  0  0  0  0  0  0  0  0  0  0  0
   -9.5688    6.5124  -13.4786 N   0  0  0  0  0  0  0  0  0  0  0  0
   -9.9616    6.6886  -12.1374 C   0  0  0  0  0  0  0  0  0  0  0  0
  -10.3565    7.9655  -11.7225 C   0  0  0  0  0  0  0  0  0  0  0  0
  -10.7488    8.1613  -10.4382 C   0  0  0  0  0  0  0  0  0  0  0  0
  -11.2428    9.7763   -9.9333 Cl  0  0  0  0  0  0  0  0  0  0  0  0
  -10.7592    7.1200   -9.5535 C   0  0  0  0  0  0  0  0  0  0  0  0
  -10.3773    5.8644   -9.9383 C   0  0  0  0  0  0  0  0  0  0  0  0
  -10.3933    4.5394   -8.8020 Cl  0  0  0  0  0  0  0  0  0  0  0  0
   -9.9791    5.6425  -11.2238 C   0  0  0  0  0  0  0  0  0  0  0  0
  -13.0564    7.1655  -15.5763 C   0  0  0  0  0  0  0  0  0  0  0  0
  1  2  1  0
  2  3  1  0
  3  4  2  0
  4  5  1  0
  5  6  2  0
  6  7  1  0
  7  8  1  0
  8  9  1  0
  9 10  2  0
 10 11  1  0
 12  2  1  6
 12 13  1  0
 13 14  1  0
 14 15  1  0
 15 16  1  0
 16 17  1  0
 17 18  2  0
 17 19  1  0
 19 20  1  0
 20 21  1  0
 21 22  2  0
 22 23  1  0
 23 24  1  0
 23 25  2  0
 25 26  1  0
 26 27  1  0
 26 28  2  0
 16 29  1  0
 11  3  1  0
 29 12  1  0
 11  7  2  0
 28 21  1  0
M  END
$$$$
