
     RDKit          3D

 29 32  0  0  0  0  0  0  0  0999 V2000
  -12.7649    6.5363  -18.0827 C   0  0  0  0  0  0  0  0  0  0  0  0
  -14.0669    6.7774  -17.4802 N   0  0  0  0  0  0  0  0  0  0  0  0
  -15.1847    6.0350  -17.9490 C   0  0  0  0  0  0  0  0  0  0  0  0
  -15.2841    5.5448  -19.2084 N   0  0  0  0  0  0  0  0  0  0  0  0
  -16.3550    4.8344  -19.5906 C   0  0  0  0  0  0  0  0  0  0  0  0
  -17.3393    4.6100  -18.7053 N   0  0  0  0  0  0  0  0  0  0  0  0
  -17.2943    5.0716  -17.4434 C   0  0  0  0  0  0  0  0  0  0  0  0
  -18.1477    4.9782  -16.3839 N   0  0  0  0  0  0  0  0  0  0  0  0
  -17.6182    5.6279  -15.3338 C   0  0  0  0  0  0  0  0  0  0  0  0
  -16.4052    6.1479  -15.7224 C   0  0  0  0  0  0  0  0  0  0  0  0
  -16.2191    5.7930  -17.0363 C   0  0  0  0  0  0  0  0  0  0  0  0
  -14.2615    7.7352  -16.4240 C   0  0  2  0  0  0  0  0  0  0  0  0
  -14.3439    9.1552  -16.8414 C   0  0  0  0  0  0  0  0  0  0  0  0
  -13.3666   10.0525  -16.1161 C   0  0  0  0  0  0  0  0  0  0  0  0
  -11.9922    9.4750  -16.0802 C   0  0  0  0  0  0  0  0  0  0  0  0
  -12.0346    8.1816  -15.4562 N   0  0  0  0  0  0  0  0  0  0  0  0
  -10.8160    7.5959  -15.0407 C   0  0  0  0  0  0  0  0  0  0  0  0
  -10.6278    6.3814  -15.2871 O   0  0  0  0  0  0  0  0  0  0  0  0
   -9.7583    8.3571  -14.3292 C   0  0  0  0  0  0  0  0  0  0  0  0
  -10.0529    8.5122  -12.9268 N   0  0  0  0  0  0  0  0  0  0  0  0
   -9.7336    9.7102  -12.2584 C   0  0  0  0  0  0  0  0  0  0  0  0
   -8.9115   10.6365  -12.9102 C   0  0  0  0  0  0  0  0  0  0  0  0
   -8.5958   11.8031  -12.2929 C   0  0  0  0  0  0  0  0  0  0  0  0
   -7.5593   12.9580  -13.1290 Cl  0  0  0  0  0  0  0  0  0  0  0  0
   -9.0762   12.0743  -11.0428 C   0  0  0  0  0  0  0  0  0  0  0  0
   -9.8810   11.1830  -10.3883 C   0  0  0  0  0  0  0  0  0  0  0  0
  -10.4905   11.5368   -8.7913 Cl  0  0  0  0  0  0  0  0  0  0  0  0
  -10.2125   10.0037  -10.9880 C   0  0  0  0  0  0  0  0  0  0  0  0
  -13.2932    7.5342  -15.2767 C   0  0  0  0  0  0  0  0  0  0  0  0
  1  2  1  0
  2  3  1  0
  3  4  2  0
  4  5  1  0
  5  6  2  0
  6  7  1  0
  7  8  1  0
  8  9  1  0
  9 10  2  0
 10 11  1  0
 12  2  1  6
 12 13  1  0
 13 14  1  0
 14 15  1  0
 15 16  1  0
 16 17  1  0
 17 18  2  0
 17 19  1  0
 19 20  1  0
 20 21  1  0
 21 22  2  0
 22 23  1  0
 23 24  1  0
 23 25  2  0
 25 26  1  0
 26 27  1  0
 26 28  2  0
 16 29  1  0
 11  3  1  0
 29 12  1  0
 11  7  2  0
 28 21  1  0
M  END
$$$$
