
     RDKit          3D

 29 32  0  0  0  0  0  0  0  0999 V2000
  -12.9077    6.6523  -18.5222 C   0  0  0  0  0  0  0  0  0  0  0  0
  -14.0779    6.7946  -17.6697 N   0  0  0  0  0  0  0  0  0  0  0  0
  -15.2463    6.0481  -17.9829 C   0  0  0  0  0  0  0  0  0  0  0  0
  -15.5117    5.5540  -19.2165 N   0  0  0  0  0  0  0  0  0  0  0  0
  -16.6222    4.8399  -19.4502 C   0  0  0  0  0  0  0  0  0  0  0  0
  -17.4787    4.6158  -18.4407 N   0  0  0  0  0  0  0  0  0  0  0  0
  -17.2668    5.0813  -17.1974 C   0  0  0  0  0  0  0  0  0  0  0  0
  -17.9707    4.9890  -16.0331 N   0  0  0  0  0  0  0  0  0  0  0  0
  -17.3074    5.6432  -15.0649 C   0  0  0  0  0  0  0  0  0  0  0  0
  -16.1586    6.1648  -15.6135 C   0  0  0  0  0  0  0  0  0  0  0  0
  -16.1488    5.8064  -16.9396 C   0  0  0  0  0  0  0  0  0  0  0  0
  -14.0922    7.6585  -16.5190 C   0  0  2  0  0  0  0  0  0  0  0  0
  -14.2112    9.1098  -16.7972 C   0  0  0  0  0  0  0  0  0  0  0  0
  -13.1187    9.9360  -16.1568 C   0  0  0  0  0  0  0  0  0  0  0  0
  -11.7656    9.3506  -16.3806 C   0  0  0  0  0  0  0  0  0  0  0  0
  -11.7362    8.0084  -15.8693 N   0  0  0  0  0  0  0  0  0  0  0  0
  -10.4794    7.3827  -15.6962 C   0  0  0  0  0  0  0  0  0  0  0  0
  -10.2471    6.3319  -16.3386 O   0  0  0  0  0  0  0  0  0  0  0  0
   -9.4319    7.9176  -14.7902 C   0  0  0  0  0  0  0  0  0  0  0  0
   -9.0901    6.9840  -13.7465 N   0  0  0  0  0  0  0  0  0  0  0  0
   -9.6429    7.1195  -12.4581 C   0  0  0  0  0  0  0  0  0  0  0  0
   -9.8137    5.9666  -11.6832 C   0  0  0  0  0  0  0  0  0  0  0  0
  -10.3354    6.0697  -10.4346 C   0  0  0  0  0  0  0  0  0  0  0  0
  -10.5432    4.6071   -9.4731 Cl  0  0  0  0  0  0  0  0  0  0  0  0
  -10.6925    7.2901   -9.9346 C   0  0  0  0  0  0  0  0  0  0  0  0
  -10.5339    8.4291  -10.6750 C   0  0  0  0  0  0  0  0  0  0  0  0
  -10.9927    9.9844  -10.0290 Cl  0  0  0  0  0  0  0  0  0  0  0  0
  -10.0116    8.3513  -11.9326 C   0  0  0  0  0  0  0  0  0  0  0  0
  -12.9645    7.3543  -15.5546 C   0  0  0  0  0  0  0  0  0  0  0  0
  1  2  1  0
  2  3  1  0
  3  4  2  0
  4  5  1  0
  5  6  2  0
  6  7  1  0
  7  8  1  0
  8  9  1  0
  9 10  2  0
 10 11  1  0
 12  2  1  6
 12 13  1  0
 13 14  1  0
 14 15  1  0
 15 16  1  0
 16 17  1  0
 17 18  2  0
 17 19  1  0
 19 20  1  0
 20 21  1  0
 21 22  2  0
 22 23  1  0
 23 24  1  0
 23 25  2  0
 25 26  1  0
 26 27  1  0
 26 28  2  0
 16 29  1  0
 11  3  1  0
 29 12  1  0
 11  7  2  0
 28 21  1  0
M  END
$$$$
