
     RDKit          3D

 29 32  0  0  0  0  0  0  0  0999 V2000
  -14.2429    7.8128  -15.3907 C   0  0  0  0  0  0  0  0  0  0  0  0
  -14.1902    7.1384  -16.6786 N   0  0  0  0  0  0  0  0  0  0  0  0
  -15.2917    6.3313  -17.0729 C   0  0  0  0  0  0  0  0  0  0  0  0
  -16.3166    6.0071  -16.2478 N   0  0  0  0  0  0  0  0  0  0  0  0
  -17.3403    5.2567  -16.6799 C   0  0  0  0  0  0  0  0  0  0  0  0
  -17.3417    4.8243  -17.9512 N   0  0  0  0  0  0  0  0  0  0  0  0
  -16.3522    5.1150  -18.8137 C   0  0  0  0  0  0  0  0  0  0  0  0
  -16.1317    4.8009  -20.1221 N   0  0  0  0  0  0  0  0  0  0  0  0
  -14.9713    5.3510  -20.5173 C   0  0  0  0  0  0  0  0  0  0  0  0
  -14.4359    6.0300  -19.4472 C   0  0  0  0  0  0  0  0  0  0  0  0
  -15.3067    5.8732  -18.3963 C   0  0  0  0  0  0  0  0  0  0  0  0
  -13.0664    7.2645  -17.5686 C   0  0  2  0  0  0  0  0  0  0  0  0
  -12.2453    6.0444  -17.7555 C   0  0  0  0  0  0  0  0  0  0  0  0
  -10.7745    6.2619  -17.4802 C   0  0  0  0  0  0  0  0  0  0  0  0
  -10.5435    6.9992  -16.2048 C   0  0  0  0  0  0  0  0  0  0  0  0
  -11.2306    8.2600  -16.2517 N   0  0  0  0  0  0  0  0  0  0  0  0
  -10.8986    9.2423  -15.2897 C   0  0  0  0  0  0  0  0  0  0  0  0
  -11.7426   10.1339  -15.0374 O   0  0  0  0  0  0  0  0  0  0  0  0
   -9.5991    9.2592  -14.5719 C   0  0  0  0  0  0  0  0  0  0  0  0
   -9.6470   10.0737  -13.3837 N   0  0  0  0  0  0  0  0  0  0  0  0
   -9.7606    9.4768  -12.1130 C   0  0  0  0  0  0  0  0  0  0  0  0
   -9.8669   10.3104  -10.9939 C   0  0  0  0  0  0  0  0  0  0  0  0
   -9.9869    9.7617   -9.7585 C   0  0  0  0  0  0  0  0  0  0  0  0
  -10.1197   10.8271   -8.3605 Cl  0  0  0  0  0  0  0  0  0  0  0  0
  -10.0042    8.4040   -9.6052 C   0  0  0  0  0  0  0  0  0  0  0  0
   -9.9018    7.5714  -10.6855 C   0  0  0  0  0  0  0  0  0  0  0  0
   -9.9247    5.8380  -10.4813 Cl  0  0  0  0  0  0  0  0  0  0  0  0
   -9.7804    8.0991  -11.9373 C   0  0  0  0  0  0  0  0  0  0  0  0
  -12.2176    8.4800  -17.2583 C   0  0  0  0  0  0  0  0  0  0  0  0
  1  2  1  0
  2  3  1  0
  3  4  2  0
  4  5  1  0
  5  6  2  0
  6  7  1  0
  7  8  1  0
  8  9  1  0
  9 10  2  0
 10 11  1  0
 12  2  1  1
 12 13  1  0
 13 14  1  0
 14 15  1  0
 15 16  1  0
 16 17  1  0
 17 18  2  0
 17 19  1  0
 19 20  1  0
 20 21  1  0
 21 22  2  0
 22 23  1  0
 23 24  1  0
 23 25  2  0
 25 26  1  0
 26 27  1  0
 26 28  2  0
 16 29  1  0
 11  3  1  0
 29 12  1  0
 11  7  2  0
 28 21  1  0
M  END
$$$$
