
     RDKit          3D

 29 32  0  0  0  0  0  0  0  0999 V2000
  -12.9086    7.1881  -18.1528 C   0  0  0  0  0  0  0  0  0  0  0  0
  -14.0302    6.7968  -17.3131 N   0  0  0  0  0  0  0  0  0  0  0  0
  -15.1296    6.1235  -17.9117 C   0  0  0  0  0  0  0  0  0  0  0  0
  -15.1812    5.7927  -19.2248 N   0  0  0  0  0  0  0  0  0  0  0  0
  -16.2370    5.1403  -19.7318 C   0  0  0  0  0  0  0  0  0  0  0  0
  -17.2545    4.8135  -18.9187 N   0  0  0  0  0  0  0  0  0  0  0  0
  -17.2574    5.1159  -17.6087 C   0  0  0  0  0  0  0  0  0  0  0  0
  -18.1506    4.8971  -16.6018 N   0  0  0  0  0  0  0  0  0  0  0  0
  -17.6612    5.4098  -15.4603 C   0  0  0  0  0  0  0  0  0  0  0  0
  -16.4341    5.9675  -15.7358 C   0  0  0  0  0  0  0  0  0  0  0  0
  -16.1982    5.7762  -17.0755 C   0  0  0  0  0  0  0  0  0  0  0  0
  -14.0630    7.0616  -15.8990 C   0  0  2  0  0  0  0  0  0  0  0  0
  -14.9991    8.1233  -15.4582 C   0  0  0  0  0  0  0  0  0  0  0  0
  -14.3376    9.2016  -14.6298 C   0  0  0  0  0  0  0  0  0  0  0  0
  -13.0671    9.6835  -15.2440 C   0  0  0  0  0  0  0  0  0  0  0  0
  -12.1715    8.5740  -15.4196 N   0  0  0  0  0  0  0  0  0  0  0  0
  -10.8105    8.8459  -15.6930 C   0  0  0  0  0  0  0  0  0  0  0  0
  -10.3917   10.0135  -15.5134 O   0  0  0  0  0  0  0  0  0  0  0  0
   -9.8650    7.8104  -16.1808 C   0  0  0  0  0  0  0  0  0  0  0  0
   -9.4594    6.9096  -15.1312 N   0  0  0  0  0  0  0  0  0  0  0  0
   -9.6483    7.2572  -13.7794 C   0  0  0  0  0  0  0  0  0  0  0  0
   -9.4810    8.5959  -13.4073 C   0  0  0  0  0  0  0  0  0  0  0  0
   -9.6661    8.9600  -12.1132 C   0  0  0  0  0  0  0  0  0  0  0  0
   -9.4511   10.6505  -11.6629 Cl  0  0  0  0  0  0  0  0  0  0  0  0
  -10.0136    8.0273  -11.1770 C   0  0  0  0  0  0  0  0  0  0  0  0
  -10.1822    6.7139  -11.5192 C   0  0  0  0  0  0  0  0  0  0  0  0
  -10.6262    5.5285  -10.3173 Cl  0  0  0  0  0  0  0  0  0  0  0  0
  -10.0020    6.3235  -12.8136 C   0  0  0  0  0  0  0  0  0  0  0  0
  -12.6781    7.2444  -15.3136 C   0  0  0  0  0  0  0  0  0  0  0  0
  1  2  1  0
  2  3  1  0
  3  4  2  0
  4  5  1  0
  5  6  2  0
  6  7  1  0
  7  8  1  0
  8  9  1  0
  9 10  2  0
 10 11  1  0
 12  2  1  6
 12 13  1  0
 13 14  1  0
 14 15  1  0
 15 16  1  0
 16 17  1  0
 17 18  2  0
 17 19  1  0
 19 20  1  0
 20 21  1  0
 21 22  2  0
 22 23  1  0
 23 24  1  0
 23 25  2  0
 25 26  1  0
 26 27  1  0
 26 28  2  0
 16 29  1  0
 11  3  1  0
 29 12  1  0
 11  7  2  0
 28 21  1  0
M  END
$$$$
