
     RDKit          3D

 29 32  0  0  0  0  0  0  0  0999 V2000
  -13.0370    5.3728  -16.4751 C   0  0  0  0  0  0  0  0  0  0  0  0
  -13.9390    6.2515  -17.2037 N   0  0  0  0  0  0  0  0  0  0  0  0
  -15.0892    5.6897  -17.8216 C   0  0  0  0  0  0  0  0  0  0  0  0
  -15.1485    5.3585  -19.1343 N   0  0  0  0  0  0  0  0  0  0  0  0
  -16.2551    4.8135  -19.6598 C   0  0  0  0  0  0  0  0  0  0  0  0
  -17.3160    4.5961  -18.8659 N   0  0  0  0  0  0  0  0  0  0  0  0
  -17.3137    4.9046  -17.5573 C   0  0  0  0  0  0  0  0  0  0  0  0
  -18.2438    4.7830  -16.5676 N   0  0  0  0  0  0  0  0  0  0  0  0
  -17.7272    5.2499  -15.4185 C   0  0  0  0  0  0  0  0  0  0  0  0
  -16.4447    5.6789  -15.6715 C   0  0  0  0  0  0  0  0  0  0  0  0
  -16.2035    5.4571  -17.0056 C   0  0  0  0  0  0  0  0  0  0  0  0
  -13.7112    7.6679  -17.3155 C   0  0  2  0  0  0  0  0  0  0  0  0
  -12.7702    8.0929  -18.3793 C   0  0  0  0  0  0  0  0  0  0  0  0
  -11.6440    8.9651  -17.8720 C   0  0  0  0  0  0  0  0  0  0  0  0
  -11.0103    8.4077  -16.6427 C   0  0  0  0  0  0  0  0  0  0  0  0
  -12.0091    8.2454  -15.6230 N   0  0  0  0  0  0  0  0  0  0  0  0
  -11.5817    8.0281  -14.2922 C   0  0  0  0  0  0  0  0  0  0  0  0
  -12.3561    7.4262  -13.5118 O   0  0  0  0  0  0  0  0  0  0  0  0
  -10.2614    8.4814  -13.7867 C   0  0  0  0  0  0  0  0  0  0  0  0
  -10.3187    8.8784  -12.4022 N   0  0  0  0  0  0  0  0  0  0  0  0
   -9.7025   10.0709  -11.9754 C   0  0  0  0  0  0  0  0  0  0  0  0
   -9.8791   10.4718  -10.6461 C   0  0  0  0  0  0  0  0  0  0  0  0
   -9.2889   11.6117  -10.2059 C   0  0  0  0  0  0  0  0  0  0  0  0
   -9.5224   12.1011   -8.5287 Cl  0  0  0  0  0  0  0  0  0  0  0  0
   -8.5264   12.3655  -11.0530 C   0  0  0  0  0  0  0  0  0  0  0  0
   -8.3408   11.9918  -12.3555 C   0  0  0  0  0  0  0  0  0  0  0  0
   -7.3652   12.9602  -13.4313 Cl  0  0  0  0  0  0  0  0  0  0  0  0
   -8.9236   10.8501  -12.8214 C   0  0  0  0  0  0  0  0  0  0  0  0
  -13.3888    8.3080  -15.9811 C   0  0  0  0  0  0  0  0  0  0  0  0
  1  2  1  0
  2  3  1  0
  3  4  2  0
  4  5  1  0
  5  6  2  0
  6  7  1  0
  7  8  1  0
  8  9  1  0
  9 10  2  0
 10 11  1  0
 12  2  1  1
 12 13  1  0
 13 14  1  0
 14 15  1  0
 15 16  1  0
 16 17  1  0
 17 18  2  0
 17 19  1  0
 19 20  1  0
 20 21  1  0
 21 22  2  0
 22 23  1  0
 23 24  1  0
 23 25  2  0
 25 26  1  0
 26 27  1  0
 26 28  2  0
 16 29  1  0
 11  3  1  0
 29 12  1  0
 11  7  2  0
 28 21  1  0
M  END
$$$$
