
     RDKit          3D

 29 32  0  0  0  0  0  0  0  0999 V2000
  -12.9698    7.3006  -18.1726 C   0  0  0  0  0  0  0  0  0  0  0  0
  -14.1538    7.0176  -17.3760 N   0  0  0  0  0  0  0  0  0  0  0  0
  -15.2381    6.3290  -17.9846 C   0  0  0  0  0  0  0  0  0  0  0  0
  -15.2685    5.9884  -19.2958 N   0  0  0  0  0  0  0  0  0  0  0  0
  -16.3107    5.3217  -19.8123 C   0  0  0  0  0  0  0  0  0  0  0  0
  -17.3358    4.9904  -19.0108 N   0  0  0  0  0  0  0  0  0  0  0  0
  -17.3597    5.3021  -17.7032 C   0  0  0  0  0  0  0  0  0  0  0  0
  -18.2642    5.0814  -16.7069 N   0  0  0  0  0  0  0  0  0  0  0  0
  -17.7956    5.6071  -15.5627 C   0  0  0  0  0  0  0  0  0  0  0  0
  -16.5705    6.1752  -15.8255 C   0  0  0  0  0  0  0  0  0  0  0  0
  -16.3144    5.9768  -17.1605 C   0  0  0  0  0  0  0  0  0  0  0  0
  -14.2631    7.4044  -15.9943 C   0  0  2  0  0  0  0  0  0  0  0  0
  -14.7856    8.7684  -15.7406 C   0  0  0  0  0  0  0  0  0  0  0  0
  -13.8808    9.6051  -14.8645 C   0  0  0  0  0  0  0  0  0  0  0  0
  -12.4560    9.5365  -15.2990 C   0  0  0  0  0  0  0  0  0  0  0  0
  -12.0216    8.1671  -15.2948 N   0  0  0  0  0  0  0  0  0  0  0  0
  -10.6343    7.9021  -15.3709 C   0  0  0  0  0  0  0  0  0  0  0  0
  -10.2522    6.9431  -16.0819 O   0  0  0  0  0  0  0  0  0  0  0  0
   -9.6198    8.7088  -14.6470 C   0  0  0  0  0  0  0  0  0  0  0  0
   -8.2745    8.3121  -14.9791 N   0  0  0  0  0  0  0  0  0  0  0  0
   -7.3554    9.2543  -15.4807 C   0  0  0  0  0  0  0  0  0  0  0  0
   -7.4136   10.5648  -14.9930 C   0  0  0  0  0  0  0  0  0  0  0  0
   -6.5338   11.4904  -15.4522 C   0  0  0  0  0  0  0  0  0  0  0  0
   -6.6219   13.1360  -14.8266 Cl  0  0  0  0  0  0  0  0  0  0  0  0
   -5.5960   11.1478  -16.3851 C   0  0  0  0  0  0  0  0  0  0  0  0
   -5.5218    9.8730  -16.8748 C   0  0  0  0  0  0  0  0  0  0  0  0
   -4.3209    9.4434  -18.0664 Cl  0  0  0  0  0  0  0  0  0  0  0  0
   -6.3950    8.9249  -16.4286 C   0  0  0  0  0  0  0  0  0  0  0  0
  -12.9945    7.1266  -15.2148 C   0  0  0  0  0  0  0  0  0  0  0  0
  1  2  1  0
  2  3  1  0
  3  4  2  0
  4  5  1  0
  5  6  2  0
  6  7  1  0
  7  8  1  0
  8  9  1  0
  9 10  2  0
 10 11  1  0
 12  2  1  6
 12 13  1  0
 13 14  1  0
 14 15  1  0
 15 16  1  0
 16 17  1  0
 17 18  2  0
 17 19  1  0
 19 20  1  0
 20 21  1  0
 21 22  2  0
 22 23  1  0
 23 24  1  0
 23 25  2  0
 25 26  1  0
 26 27  1  0
 26 28  2  0
 16 29  1  0
 11  3  1  0
 29 12  1  0
 11  7  2  0
 28 21  1  0
M  END
$$$$
