
     RDKit          3D

 29 32  0  0  0  0  0  0  0  0999 V2000
  -14.4162    7.8024  -15.5672 C   0  0  0  0  0  0  0  0  0  0  0  0
  -14.2964    7.1047  -16.8381 N   0  0  0  0  0  0  0  0  0  0  0  0
  -15.3890    6.3156  -17.2899 C   0  0  0  0  0  0  0  0  0  0  0  0
  -16.4361    5.9654  -16.5043 N   0  0  0  0  0  0  0  0  0  0  0  0
  -17.4496    5.2343  -16.9899 C   0  0  0  0  0  0  0  0  0  0  0  0
  -17.4183    4.8474  -18.2753 N   0  0  0  0  0  0  0  0  0  0  0  0
  -16.4057    5.1655  -19.1005 C   0  0  0  0  0  0  0  0  0  0  0  0
  -16.1512    4.8975  -20.4130 N   0  0  0  0  0  0  0  0  0  0  0  0
  -14.9795    5.4577  -20.7574 C   0  0  0  0  0  0  0  0  0  0  0  0
  -14.4712    6.0964  -19.6500 C   0  0  0  0  0  0  0  0  0  0  0  0
  -15.3699    5.9050  -18.6288 C   0  0  0  0  0  0  0  0  0  0  0  0
  -13.1151    7.1900  -17.6554 C   0  0  2  0  0  0  0  0  0  0  0  0
  -12.3416    5.9352  -17.8128 C   0  0  0  0  0  0  0  0  0  0  0  0
  -10.8822    6.0787  -17.4444 C   0  0  0  0  0  0  0  0  0  0  0  0
  -10.6966    6.7857  -16.1447 C   0  0  0  0  0  0  0  0  0  0  0  0
  -11.3201    8.0782  -16.2117 N   0  0  0  0  0  0  0  0  0  0  0  0
  -11.0029    9.0298  -15.2143 C   0  0  0  0  0  0  0  0  0  0  0  0
  -11.8333    9.9379  -14.9761 O   0  0  0  0  0  0  0  0  0  0  0  0
   -9.7343    8.9959  -14.4438 C   0  0  0  0  0  0  0  0  0  0  0  0
   -9.7726    9.8701  -13.2985 N   0  0  0  0  0  0  0  0  0  0  0  0
   -9.8536    9.3383  -11.9967 C   0  0  0  0  0  0  0  0  0  0  0  0
  -10.0395   10.2223  -10.9277 C   0  0  0  0  0  0  0  0  0  0  0  0
  -10.1303    9.7359   -9.6640 C   0  0  0  0  0  0  0  0  0  0  0  0
  -10.3644   10.8640   -8.3300 Cl  0  0  0  0  0  0  0  0  0  0  0  0
  -10.0412    8.3920   -9.4338 C   0  0  0  0  0  0  0  0  0  0  0  0
   -9.8598    7.5109  -10.4641 C   0  0  0  0  0  0  0  0  0  0  0  0
   -9.7469    5.7955  -10.1617 Cl  0  0  0  0  0  0  0  0  0  0  0  0
   -9.7656    7.9755  -11.7430 C   0  0  0  0  0  0  0  0  0  0  0  0
  -12.2316    8.3593  -17.2728 C   0  0  0  0  0  0  0  0  0  0  0  0
  1  2  1  0
  2  3  1  0
  3  4  2  0
  4  5  1  0
  5  6  2  0
  6  7  1  0
  7  8  1  0
  8  9  1  0
  9 10  2  0
 10 11  1  0
 12  2  1  1
 12 13  1  0
 13 14  1  0
 14 15  1  0
 15 16  1  0
 16 17  1  0
 17 18  2  0
 17 19  1  0
 19 20  1  0
 20 21  1  0
 21 22  2  0
 22 23  1  0
 23 24  1  0
 23 25  2  0
 25 26  1  0
 26 27  1  0
 26 28  2  0
 16 29  1  0
 11  3  1  0
 29 12  1  0
 11  7  2  0
 28 21  1  0
M  END
$$$$
