
     RDKit          3D

 29 32  0  0  0  0  0  0  0  0999 V2000
  -12.7591    6.4371  -18.5680 C   0  0  0  0  0  0  0  0  0  0  0  0
  -13.9628    6.5957  -17.7665 N   0  0  0  0  0  0  0  0  0  0  0  0
  -15.1096    5.8231  -18.0956 C   0  0  0  0  0  0  0  0  0  0  0  0
  -15.3541    5.3355  -19.3361 N   0  0  0  0  0  0  0  0  0  0  0  0
  -16.4444    4.5959  -19.5849 C   0  0  0  0  0  0  0  0  0  0  0  0
  -17.3016    4.3393  -18.5837 N   0  0  0  0  0  0  0  0  0  0  0  0
  -17.1099    4.7967  -17.3341 C   0  0  0  0  0  0  0  0  0  0  0  0
  -17.8188    4.6742  -16.1758 N   0  0  0  0  0  0  0  0  0  0  0  0
  -17.1789    5.3346  -15.1962 C   0  0  0  0  0  0  0  0  0  0  0  0
  -16.0403    5.8912  -15.7314 C   0  0  0  0  0  0  0  0  0  0  0  0
  -16.0125    5.5473  -17.0611 C   0  0  0  0  0  0  0  0  0  0  0  0
  -14.0311    7.5014  -16.6504 C   0  0  2  0  0  0  0  0  0  0  0  0
  -14.0904    8.9440  -16.9867 C   0  0  0  0  0  0  0  0  0  0  0  0
  -13.0214    9.7651  -16.3016 C   0  0  0  0  0  0  0  0  0  0  0  0
  -11.6731    9.1377  -16.4110 C   0  0  0  0  0  0  0  0  0  0  0  0
  -11.7160    7.8149  -15.8523 N   0  0  0  0  0  0  0  0  0  0  0  0
  -10.4919    7.1642  -15.5712 C   0  0  0  0  0  0  0  0  0  0  0  0
  -10.2240    6.1104  -16.1947 O   0  0  0  0  0  0  0  0  0  0  0  0
   -9.5185    7.6763  -14.5739 C   0  0  0  0  0  0  0  0  0  0  0  0
   -9.2970    6.7384  -13.5020 N   0  0  0  0  0  0  0  0  0  0  0  0
   -9.9389    6.9091  -12.2599 C   0  0  0  0  0  0  0  0  0  0  0  0
  -10.1546    5.7797  -11.4621 C   0  0  0  0  0  0  0  0  0  0  0  0
  -10.7623    5.9169  -10.2565 C   0  0  0  0  0  0  0  0  0  0  0  0
  -11.0257    4.4834   -9.2652 Cl  0  0  0  0  0  0  0  0  0  0  0  0
  -11.1623    7.1490   -9.8217 C   0  0  0  0  0  0  0  0  0  0  0  0
  -10.9610    8.2656  -10.5855 C   0  0  0  0  0  0  0  0  0  0  0  0
  -11.4749    9.8360  -10.0229 Cl  0  0  0  0  0  0  0  0  0  0  0  0
  -10.3521    8.1533  -11.8008 C   0  0  0  0  0  0  0  0  0  0  0  0
  -12.9806    7.2042  -15.6005 C   0  0  0  0  0  0  0  0  0  0  0  0
  1  2  1  0
  2  3  1  0
  3  4  2  0
  4  5  1  0
  5  6  2  0
  6  7  1  0
  7  8  1  0
  8  9  1  0
  9 10  2  0
 10 11  1  0
 12  2  1  6
 12 13  1  0
 13 14  1  0
 14 15  1  0
 15 16  1  0
 16 17  1  0
 17 18  2  0
 17 19  1  0
 19 20  1  0
 20 21  1  0
 21 22  2  0
 22 23  1  0
 23 24  1  0
 23 25  2  0
 25 26  1  0
 26 27  1  0
 26 28  2  0
 16 29  1  0
 11  3  1  0
 29 12  1  0
 11  7  2  0
 28 21  1  0
M  END
$$$$
