
     RDKit          3D

 29 32  0  0  0  0  0  0  0  0999 V2000
  -12.8399    6.5369  -18.4610 C   0  0  0  0  0  0  0  0  0  0  0  0
  -14.0615    6.7206  -17.6927 N   0  0  0  0  0  0  0  0  0  0  0  0
  -15.2099    5.9598  -18.0430 C   0  0  0  0  0  0  0  0  0  0  0  0
  -15.3860    5.3843  -19.2571 N   0  0  0  0  0  0  0  0  0  0  0  0
  -16.4824    4.6609  -19.5260 C   0  0  0  0  0  0  0  0  0  0  0  0
  -17.4149    4.5096  -18.5718 N   0  0  0  0  0  0  0  0  0  0  0  0
  -17.2932    5.0574  -17.3501 C   0  0  0  0  0  0  0  0  0  0  0  0
  -18.0840    5.0475  -16.2393 N   0  0  0  0  0  0  0  0  0  0  0  0
  -17.4896    5.7629  -15.2696 C   0  0  0  0  0  0  0  0  0  0  0  0
  -16.2977    6.2411  -15.7631 C   0  0  0  0  0  0  0  0  0  0  0  0
  -16.1910    5.7934  -17.0574 C   0  0  0  0  0  0  0  0  0  0  0  0
  -14.1462    7.6396  -16.5886 C   0  0  2  0  0  0  0  0  0  0  0  0
  -14.2560    9.0746  -16.9443 C   0  0  0  0  0  0  0  0  0  0  0  0
  -13.2062    9.9394  -16.2837 C   0  0  0  0  0  0  0  0  0  0  0  0
  -11.8397    9.3542  -16.4006 C   0  0  0  0  0  0  0  0  0  0  0  0
  -11.8332    8.0388  -15.8229 N   0  0  0  0  0  0  0  0  0  0  0  0
  -10.5855    7.4320  -15.5475 C   0  0  0  0  0  0  0  0  0  0  0  0
  -10.3165    6.3467  -16.1140 O   0  0  0  0  0  0  0  0  0  0  0  0
   -9.5890    8.0253  -14.6207 C   0  0  0  0  0  0  0  0  0  0  0  0
   -9.2275    7.1179  -13.5607 N   0  0  0  0  0  0  0  0  0  0  0  0
   -9.8456    7.2119  -12.2985 C   0  0  0  0  0  0  0  0  0  0  0  0
   -9.9463    6.0536  -11.5195 C   0  0  0  0  0  0  0  0  0  0  0  0
  -10.5287    6.1178  -10.2954 C   0  0  0  0  0  0  0  0  0  0  0  0
  -10.6467    4.6489   -9.3282 Cl  0  0  0  0  0  0  0  0  0  0  0  0
  -11.0147    7.3047   -9.8239 C   0  0  0  0  0  0  0  0  0  0  0  0
  -10.9264    8.4483  -10.5689 C   0  0  0  0  0  0  0  0  0  0  0  0
  -11.5498    9.9605   -9.9594 Cl  0  0  0  0  0  0  0  0  0  0  0  0
  -10.3452    8.4092  -11.8022 C   0  0  0  0  0  0  0  0  0  0  0  0
  -13.0745    7.3915  -15.5474 C   0  0  0  0  0  0  0  0  0  0  0  0
  1  2  1  0
  2  3  1  0
  3  4  2  0
  4  5  1  0
  5  6  2  0
  6  7  1  0
  7  8  1  0
  8  9  1  0
  9 10  2  0
 10 11  1  0
 12  2  1  6
 12 13  1  0
 13 14  1  0
 14 15  1  0
 15 16  1  0
 16 17  1  0
 17 18  2  0
 17 19  1  0
 19 20  1  0
 20 21  1  0
 21 22  2  0
 22 23  1  0
 23 24  1  0
 23 25  2  0
 25 26  1  0
 26 27  1  0
 26 28  2  0
 16 29  1  0
 11  3  1  0
 29 12  1  0
 11  7  2  0
 28 21  1  0
M  END
$$$$
