
     RDKit          3D

 29 32  0  0  0  0  0  0  0  0999 V2000
  -14.3157    7.8382  -15.5625 C   0  0  0  0  0  0  0  0  0  0  0  0
  -14.1950    7.1097  -16.8160 N   0  0  0  0  0  0  0  0  0  0  0  0
  -15.2679    6.2721  -17.2254 C   0  0  0  0  0  0  0  0  0  0  0  0
  -16.2950    5.9196  -16.4149 N   0  0  0  0  0  0  0  0  0  0  0  0
  -17.2911    5.1409  -16.8611 C   0  0  0  0  0  0  0  0  0  0  0  0
  -17.2624    4.7084  -18.1319 N   0  0  0  0  0  0  0  0  0  0  0  0
  -16.2691    5.0263  -18.9804 C   0  0  0  0  0  0  0  0  0  0  0  0
  -16.0213    4.7181  -20.2854 N   0  0  0  0  0  0  0  0  0  0  0  0
  -14.8711    5.3003  -20.6642 C   0  0  0  0  0  0  0  0  0  0  0  0
  -14.3702    5.9942  -19.5870 C   0  0  0  0  0  0  0  0  0  0  0  0
  -15.2512    5.8135  -18.5486 C   0  0  0  0  0  0  0  0  0  0  0  0
  -13.0321    7.2118  -17.6574 C   0  0  2  0  0  0  0  0  0  0  0  0
  -12.2175    5.9806  -17.7926 C   0  0  0  0  0  0  0  0  0  0  0  0
  -10.7578    6.1859  -17.4559 C   0  0  0  0  0  0  0  0  0  0  0  0
  -10.5744    6.9375  -16.1811 C   0  0  0  0  0  0  0  0  0  0  0  0
  -11.2444    8.2049  -16.2741 N   0  0  0  0  0  0  0  0  0  0  0  0
  -10.9436    9.1962  -15.3110 C   0  0  0  0  0  0  0  0  0  0  0  0
  -11.7867   10.1014  -15.1090 O   0  0  0  0  0  0  0  0  0  0  0  0
   -9.6777    9.2072  -14.5355 C   0  0  0  0  0  0  0  0  0  0  0  0
   -9.8000    9.9549  -13.3093 N   0  0  0  0  0  0  0  0  0  0  0  0
  -10.1134    9.3004  -12.1021 C   0  0  0  0  0  0  0  0  0  0  0  0
  -10.4068   10.0818  -10.9788 C   0  0  0  0  0  0  0  0  0  0  0  0
  -10.7212    9.4770   -9.8053 C   0  0  0  0  0  0  0  0  0  0  0  0
  -11.0879   10.4771   -8.4009 Cl  0  0  0  0  0  0  0  0  0  0  0  0
  -10.7519    8.1137   -9.7182 C   0  0  0  0  0  0  0  0  0  0  0  0
  -10.4687    7.3315  -10.8038 C   0  0  0  0  0  0  0  0  0  0  0  0
  -10.5100    5.5905  -10.6843 Cl  0  0  0  0  0  0  0  0  0  0  0  0
  -10.1500    7.9160  -11.9942 C   0  0  0  0  0  0  0  0  0  0  0  0
  -12.1839    8.4221  -17.3257 C   0  0  0  0  0  0  0  0  0  0  0  0
  1  2  1  0
  2  3  1  0
  3  4  2  0
  4  5  1  0
  5  6  2  0
  6  7  1  0
  7  8  1  0
  8  9  1  0
  9 10  2  0
 10 11  1  0
 12  2  1  1
 12 13  1  0
 13 14  1  0
 14 15  1  0
 15 16  1  0
 16 17  1  0
 17 18  2  0
 17 19  1  0
 19 20  1  0
 20 21  1  0
 21 22  2  0
 22 23  1  0
 23 24  1  0
 23 25  2  0
 25 26  1  0
 26 27  1  0
 26 28  2  0
 16 29  1  0
 11  3  1  0
 29 12  1  0
 11  7  2  0
 28 21  1  0
M  END
$$$$
