
     RDKit          3D

 29 32  0  0  0  0  0  0  0  0999 V2000
  -12.7938    6.3765  -17.9501 C   0  0  0  0  0  0  0  0  0  0  0  0
  -14.0798    6.6721  -17.3376 N   0  0  0  0  0  0  0  0  0  0  0  0
  -15.2164    5.9177  -17.7369 C   0  0  0  0  0  0  0  0  0  0  0  0
  -15.3465    5.3491  -18.9601 N   0  0  0  0  0  0  0  0  0  0  0  0
  -16.4342    4.6315  -19.2759 C   0  0  0  0  0  0  0  0  0  0  0  0
  -17.4043    4.4792  -18.3602 N   0  0  0  0  0  0  0  0  0  0  0  0
  -17.3289    5.0203  -17.1317 C   0  0  0  0  0  0  0  0  0  0  0  0
  -18.1630    5.0080  -16.0531 N   0  0  0  0  0  0  0  0  0  0  0  0
  -17.6047    5.7160  -15.0570 C   0  0  0  0  0  0  0  0  0  0  0  0
  -16.3924    6.1918  -15.5004 C   0  0  0  0  0  0  0  0  0  0  0  0
  -16.2363    5.7504  -16.7919 C   0  0  0  0  0  0  0  0  0  0  0  0
  -14.2401    7.6956  -16.3388 C   0  0  2  0  0  0  0  0  0  0  0  0
  -14.2565    9.0921  -16.8361 C   0  0  0  0  0  0  0  0  0  0  0  0
  -13.2462    9.9853  -16.1522 C   0  0  0  0  0  0  0  0  0  0  0  0
  -11.8990    9.3514  -16.0698 C   0  0  0  0  0  0  0  0  0  0  0  0
  -12.0033    8.0985  -15.3748 N   0  0  0  0  0  0  0  0  0  0  0  0
  -10.8150    7.4845  -14.9145 C   0  0  0  0  0  0  0  0  0  0  0  0
  -10.7102    6.2402  -15.0233 O   0  0  0  0  0  0  0  0  0  0  0  0
   -9.6947    8.2500  -14.3118 C   0  0  0  0  0  0  0  0  0  0  0  0
   -9.8475    8.4023  -12.8867 N   0  0  0  0  0  0  0  0  0  0  0  0
   -9.5720    9.6368  -12.2669 C   0  0  0  0  0  0  0  0  0  0  0  0
  -10.1337    9.8899  -11.0103 C   0  0  0  0  0  0  0  0  0  0  0  0
   -9.8770   11.0675  -10.3865 C   0  0  0  0  0  0  0  0  0  0  0  0
  -10.5930   11.3690   -8.8042 Cl  0  0  0  0  0  0  0  0  0  0  0  0
   -9.0756   12.0020  -10.9792 C   0  0  0  0  0  0  0  0  0  0  0  0
   -8.5166   11.7747  -12.2066 C   0  0  0  0  0  0  0  0  0  0  0  0
   -7.4938   12.9737  -12.9571 Cl  0  0  0  0  0  0  0  0  0  0  0  0
   -8.7596   10.5988  -12.8535 C   0  0  0  0  0  0  0  0  0  0  0  0
  -13.2907    7.5177  -15.1722 C   0  0  0  0  0  0  0  0  0  0  0  0
  1  2  1  0
  2  3  1  0
  3  4  2  0
  4  5  1  0
  5  6  2  0
  6  7  1  0
  7  8  1  0
  8  9  1  0
  9 10  2  0
 10 11  1  0
 12  2  1  6
 12 13  1  0
 13 14  1  0
 14 15  1  0
 15 16  1  0
 16 17  1  0
 17 18  2  0
 17 19  1  0
 19 20  1  0
 20 21  1  0
 21 22  2  0
 22 23  1  0
 23 24  1  0
 23 25  2  0
 25 26  1  0
 26 27  1  0
 26 28  2  0
 16 29  1  0
 11  3  1  0
 29 12  1  0
 11  7  2  0
 28 21  1  0
M  END
$$$$
