
     RDKit          3D

 29 32  0  0  0  0  0  0  0  0999 V2000
  -14.9101    6.5800  -14.4667 C   0  0  0  0  0  0  0  0  0  0  0  0
  -14.7981    6.5681  -15.9171 N   0  0  0  0  0  0  0  0  0  0  0  0
  -15.7813    5.8733  -16.6726 C   0  0  0  0  0  0  0  0  0  0  0  0
  -16.9717    5.4720  -16.1645 N   0  0  0  0  0  0  0  0  0  0  0  0
  -17.8702    4.8358  -16.9298 C   0  0  0  0  0  0  0  0  0  0  0  0
  -17.5776    4.5969  -18.2183 N   0  0  0  0  0  0  0  0  0  0  0  0
  -16.4131    4.9721  -18.7757 C   0  0  0  0  0  0  0  0  0  0  0  0
  -15.8954    4.8466  -20.0310 N   0  0  0  0  0  0  0  0  0  0  0  0
  -14.6723    5.4020  -20.0601 C   0  0  0  0  0  0  0  0  0  0  0  0
  -14.3976    5.8928  -18.8046 C   0  0  0  0  0  0  0  0  0  0  0  0
  -15.4899    5.6173  -18.0184 C   0  0  0  0  0  0  0  0  0  0  0  0
  -13.7320    7.2389  -16.6128 C   0  0  2  0  0  0  0  0  0  0  0  0
  -12.7664    6.3646  -17.3206 C   0  0  0  0  0  0  0  0  0  0  0  0
  -11.3276    6.6203  -16.9322 C   0  0  0  0  0  0  0  0  0  0  0  0
  -11.1500    6.7045  -15.4540 C   0  0  0  0  0  0  0  0  0  0  0  0
  -11.9962    7.7406  -14.9303 N   0  0  0  0  0  0  0  0  0  0  0  0
  -11.7612    8.1982  -13.6127 C   0  0  0  0  0  0  0  0  0  0  0  0
  -12.7462    8.3432  -12.8511 O   0  0  0  0  0  0  0  0  0  0  0  0
  -10.4038    8.5114  -13.0994 C   0  0  0  0  0  0  0  0  0  0  0  0
  -10.4457    9.1240  -11.7954 N   0  0  0  0  0  0  0  0  0  0  0  0
   -9.7486   10.3224  -11.5467 C   0  0  0  0  0  0  0  0  0  0  0  0
   -9.7567   10.8388  -10.2460 C   0  0  0  0  0  0  0  0  0  0  0  0
   -9.0854   11.9870   -9.9766 C   0  0  0  0  0  0  0  0  0  0  0  0
   -9.1067   12.6226   -8.3327 Cl  0  0  0  0  0  0  0  0  0  0  0  0
   -8.4048   12.6370  -10.9673 C   0  0  0  0  0  0  0  0  0  0  0  0
   -8.3839   12.1495  -12.2450 C   0  0  0  0  0  0  0  0  0  0  0  0
   -7.5121   12.9859  -13.5049 Cl  0  0  0  0  0  0  0  0  0  0  0  0
   -9.0509   10.9971  -12.5405 C   0  0  0  0  0  0  0  0  0  0  0  0
  -13.0379    8.2710  -15.7484 C   0  0  0  0  0  0  0  0  0  0  0  0
  1  2  1  0
  2  3  1  0
  3  4  2  0
  4  5  1  0
  5  6  2  0
  6  7  1  0
  7  8  1  0
  8  9  1  0
  9 10  2  0
 10 11  1  0
 12  2  1  1
 12 13  1  0
 13 14  1  0
 14 15  1  0
 15 16  1  0
 16 17  1  0
 17 18  2  0
 17 19  1  0
 19 20  1  0
 20 21  1  0
 21 22  2  0
 22 23  1  0
 23 24  1  0
 23 25  2  0
 25 26  1  0
 26 27  1  0
 26 28  2  0
 16 29  1  0
 11  3  1  0
 29 12  1  0
 11  7  2  0
 28 21  1  0
M  END
$$$$
