
     RDKit          3D

 29 32  0  0  0  0  0  0  0  0999 V2000
  -12.8256    6.4944  -18.0875 C   0  0  0  0  0  0  0  0  0  0  0  0
  -14.1170    6.6882  -17.4462 N   0  0  0  0  0  0  0  0  0  0  0  0
  -15.2289    5.9321  -17.9068 C   0  0  0  0  0  0  0  0  0  0  0  0
  -15.3188    5.4167  -19.1569 N   0  0  0  0  0  0  0  0  0  0  0  0
  -16.3845    4.6945  -19.5313 C   0  0  0  0  0  0  0  0  0  0  0  0
  -17.3732    4.4835  -18.6476 N   0  0  0  0  0  0  0  0  0  0  0  0
  -17.3377    4.9702  -17.3948 C   0  0  0  0  0  0  0  0  0  0  0  0
  -18.1971    4.8943  -16.3388 N   0  0  0  0  0  0  0  0  0  0  0  0
  -17.6765    5.5668  -15.2986 C   0  0  0  0  0  0  0  0  0  0  0  0
  -16.4633    6.0840  -15.6902 C   0  0  0  0  0  0  0  0  0  0  0  0
  -16.2678    5.7039  -16.9957 C   0  0  0  0  0  0  0  0  0  0  0  0
  -14.3065    7.6126  -16.3598 C   0  0  2  0  0  0  0  0  0  0  0  0
  -14.4378    9.0404  -16.7367 C   0  0  0  0  0  0  0  0  0  0  0  0
  -13.4641    9.9444  -16.0149 C   0  0  0  0  0  0  0  0  0  0  0  0
  -12.0746    9.4033  -16.0325 C   0  0  0  0  0  0  0  0  0  0  0  0
  -12.0654    8.0936  -15.4424 N   0  0  0  0  0  0  0  0  0  0  0  0
  -10.8206    7.5302  -15.0766 C   0  0  0  0  0  0  0  0  0  0  0  0
  -10.5803    6.3493  -15.4214 O   0  0  0  0  0  0  0  0  0  0  0  0
   -9.7946    8.2767  -14.3058 C   0  0  0  0  0  0  0  0  0  0  0  0
  -10.2050    8.5124  -12.9443 N   0  0  0  0  0  0  0  0  0  0  0  0
   -9.8571    9.7107  -12.2910 C   0  0  0  0  0  0  0  0  0  0  0  0
   -9.0322   10.6195  -12.9636 C   0  0  0  0  0  0  0  0  0  0  0  0
   -8.6891   11.7861  -12.3610 C   0  0  0  0  0  0  0  0  0  0  0  0
   -7.6493   12.9186  -13.2232 Cl  0  0  0  0  0  0  0  0  0  0  0  0
   -9.1448   12.0743  -11.1055 C   0  0  0  0  0  0  0  0  0  0  0  0
   -9.9519   11.2003  -10.4307 C   0  0  0  0  0  0  0  0  0  0  0  0
  -10.5299   11.5759   -8.8270 Cl  0  0  0  0  0  0  0  0  0  0  0  0
  -10.3107   10.0214  -11.0153 C   0  0  0  0  0  0  0  0  0  0  0  0
  -13.3011    7.4080  -15.2456 C   0  0  0  0  0  0  0  0  0  0  0  0
  1  2  1  0
  2  3  1  0
  3  4  2  0
  4  5  1  0
  5  6  2  0
  6  7  1  0
  7  8  1  0
  8  9  1  0
  9 10  2  0
 10 11  1  0
 12  2  1  6
 12 13  1  0
 13 14  1  0
 14 15  1  0
 15 16  1  0
 16 17  1  0
 17 18  2  0
 17 19  1  0
 19 20  1  0
 20 21  1  0
 21 22  2  0
 22 23  1  0
 23 24  1  0
 23 25  2  0
 25 26  1  0
 26 27  1  0
 26 28  2  0
 16 29  1  0
 11  3  1  0
 29 12  1  0
 11  7  2  0
 28 21  1  0
M  END
$$$$
