
     RDKit          3D

 29 32  0  0  0  0  0  0  0  0999 V2000
  -12.7446    6.5095  -17.9077 C   0  0  0  0  0  0  0  0  0  0  0  0
  -14.0811    6.7777  -17.3996 N   0  0  0  0  0  0  0  0  0  0  0  0
  -15.1750    6.0437  -17.9334 C   0  0  0  0  0  0  0  0  0  0  0  0
  -15.1778    5.4986  -19.1740 N   0  0  0  0  0  0  0  0  0  0  0  0
  -16.2317    4.7994  -19.6188 C   0  0  0  0  0  0  0  0  0  0  0  0
  -17.2965    4.6418  -18.8160 N   0  0  0  0  0  0  0  0  0  0  0  0
  -17.3490    5.1600  -17.5765 C   0  0  0  0  0  0  0  0  0  0  0  0
  -18.2947    5.1379  -16.5945 N   0  0  0  0  0  0  0  0  0  0  0  0
  -17.8405    5.8215  -15.5306 C   0  0  0  0  0  0  0  0  0  0  0  0
  -16.5829    6.2912  -15.8317 C   0  0  0  0  0  0  0  0  0  0  0  0
  -16.2925    5.8712  -17.1070 C   0  0  0  0  0  0  0  0  0  0  0  0
  -14.3333    7.7541  -16.3730 C   0  0  2  0  0  0  0  0  0  0  0  0
  -14.3349    9.1708  -16.8098 C   0  0  0  0  0  0  0  0  0  0  0  0
  -13.3939   10.0462  -16.0131 C   0  0  0  0  0  0  0  0  0  0  0  0
  -12.0467    9.4269  -15.8554 C   0  0  0  0  0  0  0  0  0  0  0  0
  -12.1827    8.1433  -15.2247 N   0  0  0  0  0  0  0  0  0  0  0  0
  -11.0228    7.5253  -14.7018 C   0  0  0  0  0  0  0  0  0  0  0  0
  -10.4429    6.6635  -15.4034 O   0  0  0  0  0  0  0  0  0  0  0  0
  -10.4687    7.8544  -13.3644 C   0  0  0  0  0  0  0  0  0  0  0  0
   -9.4458    8.8674  -13.4360 N   0  0  0  0  0  0  0  0  0  0  0  0
   -9.3788    9.8845  -12.4639 C   0  0  0  0  0  0  0  0  0  0  0  0
   -8.6108   11.0208  -12.7423 C   0  0  0  0  0  0  0  0  0  0  0  0
   -8.5365   12.0201  -11.8271 C   0  0  0  0  0  0  0  0  0  0  0  0
   -7.5644   13.4438  -12.1949 Cl  0  0  0  0  0  0  0  0  0  0  0  0
   -9.2063   11.9201  -10.6403 C   0  0  0  0  0  0  0  0  0  0  0  0
   -9.9625   10.8185  -10.3484 C   0  0  0  0  0  0  0  0  0  0  0  0
  -10.8151   10.6983   -8.8300 Cl  0  0  0  0  0  0  0  0  0  0  0  0
  -10.0528    9.8010  -11.2522 C   0  0  0  0  0  0  0  0  0  0  0  0
  -13.4721    7.5375  -15.1460 C   0  0  0  0  0  0  0  0  0  0  0  0
  1  2  1  0
  2  3  1  0
  3  4  2  0
  4  5  1  0
  5  6  2  0
  6  7  1  0
  7  8  1  0
  8  9  1  0
  9 10  2  0
 10 11  1  0
 12  2  1  6
 12 13  1  0
 13 14  1  0
 14 15  1  0
 15 16  1  0
 16 17  1  0
 17 18  2  0
 17 19  1  0
 19 20  1  0
 20 21  1  0
 21 22  2  0
 22 23  1  0
 23 24  1  0
 23 25  2  0
 25 26  1  0
 26 27  1  0
 26 28  2  0
 16 29  1  0
 11  3  1  0
 29 12  1  0
 11  7  2  0
 28 21  1  0
M  END
$$$$
