
     RDKit          3D

 29 32  0  0  0  0  0  0  0  0999 V2000
  -12.9138    6.5756  -18.6107 C   0  0  0  0  0  0  0  0  0  0  0  0
  -14.0968    6.7507  -17.7822 N   0  0  0  0  0  0  0  0  0  0  0  0
  -15.2627    5.9974  -18.0880 C   0  0  0  0  0  0  0  0  0  0  0  0
  -15.4919    5.4285  -19.2963 N   0  0  0  0  0  0  0  0  0  0  0  0
  -16.6023    4.7120  -19.5229 C   0  0  0  0  0  0  0  0  0  0  0  0
  -17.4954    4.5610  -18.5316 N   0  0  0  0  0  0  0  0  0  0  0  0
  -17.3203    5.1026  -17.3135 C   0  0  0  0  0  0  0  0  0  0  0  0
  -18.0645    5.0916  -16.1710 N   0  0  0  0  0  0  0  0  0  0  0  0
  -17.4267    5.7994  -15.2236 C   0  0  0  0  0  0  0  0  0  0  0  0
  -16.2537    6.2737  -15.7638 C   0  0  0  0  0  0  0  0  0  0  0  0
  -16.2031    5.8315  -17.0635 C   0  0  0  0  0  0  0  0  0  0  0  0
  -14.1259    7.6537  -16.6622 C   0  0  2  0  0  0  0  0  0  0  0  0
  -14.1937    9.0973  -16.9928 C   0  0  0  0  0  0  0  0  0  0  0  0
  -13.1007    9.9147  -16.3419 C   0  0  0  0  0  0  0  0  0  0  0  0
  -11.7580    9.2850  -16.4980 C   0  0  0  0  0  0  0  0  0  0  0  0
  -11.7847    7.9609  -15.9413 N   0  0  0  0  0  0  0  0  0  0  0  0
  -10.5532    7.3073  -15.7030 C   0  0  0  0  0  0  0  0  0  0  0  0
  -10.3232    6.2360  -16.3117 O   0  0  0  0  0  0  0  0  0  0  0  0
   -9.5292    7.8360  -14.7669 C   0  0  0  0  0  0  0  0  0  0  0  0
   -9.2138    6.8954  -13.7214 N   0  0  0  0  0  0  0  0  0  0  0  0
   -9.8111    7.0127  -12.4512 C   0  0  0  0  0  0  0  0  0  0  0  0
  -10.0594    5.8439  -11.7225 C   0  0  0  0  0  0  0  0  0  0  0  0
  -10.6254    5.9288  -10.4921 C   0  0  0  0  0  0  0  0  0  0  0  0
  -10.9307    4.4463   -9.5888 Cl  0  0  0  0  0  0  0  0  0  0  0  0
  -10.9519    7.1466   -9.9653 C   0  0  0  0  0  0  0  0  0  0  0  0
  -10.7178    8.3010  -10.6605 C   0  0  0  0  0  0  0  0  0  0  0  0
  -11.1379    9.8528   -9.9806 Cl  0  0  0  0  0  0  0  0  0  0  0  0
  -10.1497    8.2415  -11.8991 C   0  0  0  0  0  0  0  0  0  0  0  0
  -13.0414    7.3520  -15.6488 C   0  0  0  0  0  0  0  0  0  0  0  0
  1  2  1  0
  2  3  1  0
  3  4  2  0
  4  5  1  0
  5  6  2  0
  6  7  1  0
  7  8  1  0
  8  9  1  0
  9 10  2  0
 10 11  1  0
 12  2  1  6
 12 13  1  0
 13 14  1  0
 14 15  1  0
 15 16  1  0
 16 17  1  0
 17 18  2  0
 17 19  1  0
 19 20  1  0
 20 21  1  0
 21 22  2  0
 22 23  1  0
 23 24  1  0
 23 25  2  0
 25 26  1  0
 26 27  1  0
 26 28  2  0
 16 29  1  0
 11  3  1  0
 29 12  1  0
 11  7  2  0
 28 21  1  0
M  END
$$$$
