
     RDKit          3D

 29 32  0  0  0  0  0  0  0  0999 V2000
  -13.1161    7.4636  -17.6538 C   0  0  0  0  0  0  0  0  0  0  0  0
  -14.0140    6.5898  -16.9146 N   0  0  0  0  0  0  0  0  0  0  0  0
  -15.0569    5.9284  -17.6184 C   0  0  0  0  0  0  0  0  0  0  0  0
  -14.9995    5.6335  -18.9398 N   0  0  0  0  0  0  0  0  0  0  0  0
  -16.0066    4.9907  -19.5483 C   0  0  0  0  0  0  0  0  0  0  0  0
  -17.0845    4.6376  -18.8297 N   0  0  0  0  0  0  0  0  0  0  0  0
  -17.1957    4.9040  -17.5166 C   0  0  0  0  0  0  0  0  0  0  0  0
  -18.1662    4.6540  -16.5920 N   0  0  0  0  0  0  0  0  0  0  0  0
  -17.7743    5.1374  -15.4011 C   0  0  0  0  0  0  0  0  0  0  0  0
  -16.5325    5.7075  -15.5608 C   0  0  0  0  0  0  0  0  0  0  0  0
  -16.1874    5.5539  -16.8816 C   0  0  0  0  0  0  0  0  0  0  0  0
  -13.8800    6.3671  -15.4992 C   0  0  2  0  0  0  0  0  0  0  0  0
  -14.7800    7.1604  -14.6284 C   0  0  0  0  0  0  0  0  0  0  0  0
  -14.0481    7.9418  -13.5607 C   0  0  0  0  0  0  0  0  0  0  0  0
  -12.8740    8.6799  -14.1086 C   0  0  0  0  0  0  0  0  0  0  0  0
  -11.9804    7.7510  -14.7431 N   0  0  0  0  0  0  0  0  0  0  0  0
  -10.6699    8.1840  -15.0529 C   0  0  0  0  0  0  0  0  0  0  0  0
  -10.4215    8.5235  -16.2336 O   0  0  0  0  0  0  0  0  0  0  0  0
   -9.5846    8.2518  -14.0421 C   0  0  0  0  0  0  0  0  0  0  0  0
   -9.9780    8.9992  -12.8741 N   0  0  0  0  0  0  0  0  0  0  0  0
   -9.3501   10.2212  -12.5635 C   0  0  0  0  0  0  0  0  0  0  0  0
   -9.6061   10.8021  -11.3162 C   0  0  0  0  0  0  0  0  0  0  0  0
   -9.0071   11.9745  -10.9874 C   0  0  0  0  0  0  0  0  0  0  0  0
   -9.3413   12.6915   -9.4122 Cl  0  0  0  0  0  0  0  0  0  0  0  0
   -8.1587   12.5863  -11.8667 C   0  0  0  0  0  0  0  0  0  0  0  0
   -7.8948   12.0357  -13.0905 C   0  0  0  0  0  0  0  0  0  0  0  0
   -6.8098   12.8235  -14.2081 Cl  0  0  0  0  0  0  0  0  0  0  0  0
   -8.4846   10.8578  -13.4439 C   0  0  0  0  0  0  0  0  0  0  0  0
  -12.4387    6.4324  -15.0383 C   0  0  0  0  0  0  0  0  0  0  0  0
  1  2  1  0
  2  3  1  0
  3  4  2  0
  4  5  1  0
  5  6  2  0
  6  7  1  0
  7  8  1  0
  8  9  1  0
  9 10  2  0
 10 11  1  0
 12  2  1  6
 12 13  1  0
 13 14  1  0
 14 15  1  0
 15 16  1  0
 16 17  1  0
 17 18  2  0
 17 19  1  0
 19 20  1  0
 20 21  1  0
 21 22  2  0
 22 23  1  0
 23 24  1  0
 23 25  2  0
 25 26  1  0
 26 27  1  0
 26 28  2  0
 16 29  1  0
 11  3  1  0
 29 12  1  0
 11  7  2  0
 28 21  1  0
M  END
$$$$
