
     RDKit          3D

 29 32  0  0  0  0  0  0  0  0999 V2000
  -12.7853    6.6858  -18.5592 C   0  0  0  0  0  0  0  0  0  0  0  0
  -14.0011    6.7894  -17.7671 N   0  0  0  0  0  0  0  0  0  0  0  0
  -15.1338    6.0209  -18.1504 C   0  0  0  0  0  0  0  0  0  0  0  0
  -15.2514    5.4077  -19.3531 N   0  0  0  0  0  0  0  0  0  0  0  0
  -16.3360    4.6791  -19.6537 C   0  0  0  0  0  0  0  0  0  0  0  0
  -17.3158    4.5606  -18.7431 N   0  0  0  0  0  0  0  0  0  0  0  0
  -17.2530    5.1465  -17.5347 C   0  0  0  0  0  0  0  0  0  0  0  0
  -18.0983    5.1739  -16.4652 N   0  0  0  0  0  0  0  0  0  0  0  0
  -17.5501    5.9181  -15.4899 C   0  0  0  0  0  0  0  0  0  0  0  0
  -16.3330    6.3772  -15.9378 C   0  0  0  0  0  0  0  0  0  0  0  0
  -16.1636    5.8885  -17.2105 C   0  0  0  0  0  0  0  0  0  0  0  0
  -14.0953    7.6366  -16.6077 C   0  0  2  0  0  0  0  0  0  0  0  0
  -14.2659    9.0850  -16.8733 C   0  0  0  0  0  0  0  0  0  0  0  0
  -13.2345    9.9482  -16.1823 C   0  0  0  0  0  0  0  0  0  0  0  0
  -11.8502    9.4237  -16.3617 C   0  0  0  0  0  0  0  0  0  0  0  0
  -11.7823    8.0773  -15.8653 N   0  0  0  0  0  0  0  0  0  0  0  0
  -10.5073    7.5033  -15.6521 C   0  0  0  0  0  0  0  0  0  0  0  0
  -10.1522    6.5566  -16.3929 O   0  0  0  0  0  0  0  0  0  0  0  0
   -9.5794    7.9741  -14.5931 C   0  0  0  0  0  0  0  0  0  0  0  0
   -9.2855    6.9411  -13.6318 N   0  0  0  0  0  0  0  0  0  0  0  0
   -9.8257    7.0004  -12.3323 C   0  0  0  0  0  0  0  0  0  0  0  0
  -10.1749    8.2526  -11.8139 C   0  0  0  0  0  0  0  0  0  0  0  0
  -10.7062    8.3376  -10.5680 C   0  0  0  0  0  0  0  0  0  0  0  0
  -11.1400    9.9230   -9.9314 Cl  0  0  0  0  0  0  0  0  0  0  0  0
  -10.9000    7.2092   -9.8221 C   0  0  0  0  0  0  0  0  0  0  0  0
  -10.5659    5.9759  -10.3097 C   0  0  0  0  0  0  0  0  0  0  0  0
  -10.8166    4.5393   -9.3505 Cl  0  0  0  0  0  0  0  0  0  0  0  0
  -10.0305    5.8647  -11.5593 C   0  0  0  0  0  0  0  0  0  0  0  0
  -12.9924    7.3676  -15.6050 C   0  0  0  0  0  0  0  0  0  0  0  0
  1  2  1  0
  2  3  1  0
  3  4  2  0
  4  5  1  0
  5  6  2  0
  6  7  1  0
  7  8  1  0
  8  9  1  0
  9 10  2  0
 10 11  1  0
 12  2  1  6
 12 13  1  0
 13 14  1  0
 14 15  1  0
 15 16  1  0
 16 17  1  0
 17 18  2  0
 17 19  1  0
 19 20  1  0
 20 21  1  0
 21 22  2  0
 22 23  1  0
 23 24  1  0
 23 25  2  0
 25 26  1  0
 26 27  1  0
 26 28  2  0
 16 29  1  0
 11  3  1  0
 29 12  1  0
 11  7  2  0
 28 21  1  0
M  END
$$$$
