
     RDKit          3D

 29 32  0  0  0  0  0  0  0  0999 V2000
  -12.8852    6.4786  -17.1311 C   0  0  0  0  0  0  0  0  0  0  0  0
  -14.3025    6.7833  -17.0097 N   0  0  0  0  0  0  0  0  0  0  0  0
  -15.2420    5.9312  -17.6514 C   0  0  0  0  0  0  0  0  0  0  0  0
  -15.0278    5.3537  -18.8584 N   0  0  0  0  0  0  0  0  0  0  0  0
  -15.9430    4.5426  -19.4082 C   0  0  0  0  0  0  0  0  0  0  0  0
  -17.0863    4.3045  -18.7455 N   0  0  0  0  0  0  0  0  0  0  0  0
  -17.3523    4.8497  -17.5457 C   0  0  0  0  0  0  0  0  0  0  0  0
  -18.4149    4.7630  -16.6956 N   0  0  0  0  0  0  0  0  0  0  0  0
  -18.1729    5.5174  -15.6104 C   0  0  0  0  0  0  0  0  0  0  0  0
  -16.9356    6.0991  -15.7635 C   0  0  0  0  0  0  0  0  0  0  0  0
  -16.4392    5.6737  -16.9717 C   0  0  0  0  0  0  0  0  0  0  0  0
  -14.7863    7.9117  -16.2590 C   0  0  2  0  0  0  0  0  0  0  0  0
  -14.8879    9.1908  -17.0013 C   0  0  0  0  0  0  0  0  0  0  0  0
  -14.1553   10.3328  -16.3339 C   0  0  0  0  0  0  0  0  0  0  0  0
  -12.7788    9.9471  -15.9095 C   0  0  0  0  0  0  0  0  0  0  0  0
  -12.8517    8.8193  -15.0226 N   0  0  0  0  0  0  0  0  0  0  0  0
  -11.7057    8.4868  -14.2629 C   0  0  0  0  0  0  0  0  0  0  0  0
  -11.0943    7.4295  -14.5444 O   0  0  0  0  0  0  0  0  0  0  0  0
  -11.2018    9.3346  -13.1531 C   0  0  0  0  0  0  0  0  0  0  0  0
   -9.7642    9.3012  -13.0557 N   0  0  0  0  0  0  0  0  0  0  0  0
   -9.0849   10.1984  -12.2085 C   0  0  0  0  0  0  0  0  0  0  0  0
   -9.5185   10.3193  -10.8833 C   0  0  0  0  0  0  0  0  0  0  0  0
   -8.8761   11.1694  -10.0429 C   0  0  0  0  0  0  0  0  0  0  0  0
   -9.4361   11.3087   -8.3774 Cl  0  0  0  0  0  0  0  0  0  0  0  0
   -7.8122   11.9041  -10.4851 C   0  0  0  0  0  0  0  0  0  0  0  0
   -7.3723   11.8009  -11.7760 C   0  0  0  0  0  0  0  0  0  0  0  0
   -6.0125   12.7429  -12.3332 Cl  0  0  0  0  0  0  0  0  0  0  0  0
   -8.0015   10.9532  -12.6396 C   0  0  0  0  0  0  0  0  0  0  0  0
  -14.0668    8.0765  -14.9364 C   0  0  0  0  0  0  0  0  0  0  0  0
  1  2  1  0
  2  3  1  0
  3  4  2  0
  4  5  1  0
  5  6  2  0
  6  7  1  0
  7  8  1  0
  8  9  1  0
  9 10  2  0
 10 11  1  0
 12  2  1  6
 12 13  1  0
 13 14  1  0
 14 15  1  0
 15 16  1  0
 16 17  1  0
 17 18  2  0
 17 19  1  0
 19 20  1  0
 20 21  1  0
 21 22  2  0
 22 23  1  0
 23 24  1  0
 23 25  2  0
 25 26  1  0
 26 27  1  0
 26 28  2  0
 16 29  1  0
 11  3  1  0
 29 12  1  0
 11  7  2  0
 28 21  1  0
M  END
$$$$
