
     RDKit          3D

 29 32  0  0  0  0  0  0  0  0999 V2000
  -12.6443    6.4173  -17.6674 C   0  0  0  0  0  0  0  0  0  0  0  0
  -14.0248    6.7290  -17.3307 N   0  0  0  0  0  0  0  0  0  0  0  0
  -15.0570    5.8936  -17.8376 C   0  0  0  0  0  0  0  0  0  0  0  0
  -15.0324    5.3376  -19.0731 N   0  0  0  0  0  0  0  0  0  0  0  0
  -16.0265    4.5413  -19.4921 C   0  0  0  0  0  0  0  0  0  0  0  0
  -17.0581    4.2965  -18.6682 N   0  0  0  0  0  0  0  0  0  0  0  0
  -17.1353    4.8207  -17.4326 C   0  0  0  0  0  0  0  0  0  0  0  0
  -18.0576    4.7235  -16.4330 N   0  0  0  0  0  0  0  0  0  0  0  0
  -17.6484    5.4565  -15.3838 C   0  0  0  0  0  0  0  0  0  0  0  0
  -16.4441    6.0347  -15.7124 C   0  0  0  0  0  0  0  0  0  0  0  0
  -16.1395    5.6294  -16.9891 C   0  0  0  0  0  0  0  0  0  0  0  0
  -14.3810    7.8480  -16.4991 C   0  0  2  0  0  0  0  0  0  0  0  0
  -14.2689    9.1862  -17.1271 C   0  0  0  0  0  0  0  0  0  0  0  0
  -13.4162   10.1519  -16.3355 C   0  0  0  0  0  0  0  0  0  0  0  0
  -12.1280    9.5395  -15.9006 C   0  0  0  0  0  0  0  0  0  0  0  0
  -12.3983    8.3634  -15.1211 N   0  0  0  0  0  0  0  0  0  0  0  0
  -11.3464    7.8082  -14.3556 C   0  0  0  0  0  0  0  0  0  0  0  0
  -10.6491    6.9048  -14.8738 O   0  0  0  0  0  0  0  0  0  0  0  0
  -11.0376    8.2501  -12.9723 C   0  0  0  0  0  0  0  0  0  0  0  0
   -9.7364    8.8627  -12.8770 N   0  0  0  0  0  0  0  0  0  0  0  0
   -9.5521   10.0329  -12.1151 C   0  0  0  0  0  0  0  0  0  0  0  0
   -8.8362   11.0917  -12.6852 C   0  0  0  0  0  0  0  0  0  0  0  0
   -8.6520   12.2344  -11.9767 C   0  0  0  0  0  0  0  0  0  0  0  0
   -7.7477   13.5575  -12.7107 Cl  0  0  0  0  0  0  0  0  0  0  0  0
   -9.1613   12.3533  -10.7143 C   0  0  0  0  0  0  0  0  0  0  0  0
   -9.8640   11.3308  -10.1386 C   0  0  0  0  0  0  0  0  0  0  0  0
  -10.5113   11.4905   -8.5254 Cl  0  0  0  0  0  0  0  0  0  0  0  0
  -10.0625   10.1724  -10.8307 C   0  0  0  0  0  0  0  0  0  0  0  0
  -13.7078    7.7972  -15.1432 C   0  0  0  0  0  0  0  0  0  0  0  0
  1  2  1  0
  2  3  1  0
  3  4  2  0
  4  5  1  0
  5  6  2  0
  6  7  1  0
  7  8  1  0
  8  9  1  0
  9 10  2  0
 10 11  1  0
 12  2  1  6
 12 13  1  0
 13 14  1  0
 14 15  1  0
 15 16  1  0
 16 17  1  0
 17 18  2  0
 17 19  1  0
 19 20  1  0
 20 21  1  0
 21 22  2  0
 22 23  1  0
 23 24  1  0
 23 25  2  0
 25 26  1  0
 26 27  1  0
 26 28  2  0
 16 29  1  0
 11  3  1  0
 29 12  1  0
 11  7  2  0
 28 21  1  0
M  END
$$$$
