
     RDKit          3D

 29 32  0  0  0  0  0  0  0  0999 V2000
  -12.6092    6.2677  -17.8823 C   0  0  0  0  0  0  0  0  0  0  0  0
  -13.9578    6.5667  -17.4260 N   0  0  0  0  0  0  0  0  0  0  0  0
  -15.0376    5.7932  -17.9321 C   0  0  0  0  0  0  0  0  0  0  0  0
  -15.0793    5.2992  -19.1933 N   0  0  0  0  0  0  0  0  0  0  0  0
  -16.1162    4.5592  -19.6113 C   0  0  0  0  0  0  0  0  0  0  0  0
  -17.1244    4.3086  -18.7605 N   0  0  0  0  0  0  0  0  0  0  0  0
  -17.1364    4.7726  -17.4987 C   0  0  0  0  0  0  0  0  0  0  0  0
  -18.0235    4.6568  -16.4697 N   0  0  0  0  0  0  0  0  0  0  0  0
  -17.5493    5.3220  -15.4029 C   0  0  0  0  0  0  0  0  0  0  0  0
  -16.3382    5.8748  -15.7498 C   0  0  0  0  0  0  0  0  0  0  0  0
  -16.0964    5.5238  -17.0558 C   0  0  0  0  0  0  0  0  0  0  0  0
  -14.2359    7.6123  -16.4772 C   0  0  2  0  0  0  0  0  0  0  0  0
  -14.1992    8.9967  -17.0064 C   0  0  0  0  0  0  0  0  0  0  0  0
  -13.2776    9.9117  -16.2320 C   0  0  0  0  0  0  0  0  0  0  0  0
  -11.9469    9.2879  -15.9794 C   0  0  0  0  0  0  0  0  0  0  0  0
  -12.1268    8.0510  -15.2712 N   0  0  0  0  0  0  0  0  0  0  0  0
  -10.9977    7.4551  -14.6622 C   0  0  0  0  0  0  0  0  0  0  0  0
  -10.9246    6.2039  -14.6455 O   0  0  0  0  0  0  0  0  0  0  0  0
   -9.9035    8.2472  -14.0462 C   0  0  0  0  0  0  0  0  0  0  0  0
  -10.1523    8.5233  -12.6536 N   0  0  0  0  0  0  0  0  0  0  0  0
   -9.8338    9.7819  -12.1073 C   0  0  0  0  0  0  0  0  0  0  0  0
  -10.3528   10.1117  -10.8500 C   0  0  0  0  0  0  0  0  0  0  0  0
  -10.0541   11.3140  -10.2961 C   0  0  0  0  0  0  0  0  0  0  0  0
  -10.7166   11.7122   -8.7120 Cl  0  0  0  0  0  0  0  0  0  0  0  0
   -9.2518   12.1992  -10.9595 C   0  0  0  0  0  0  0  0  0  0  0  0
   -8.7342   11.8968  -12.1888 C   0  0  0  0  0  0  0  0  0  0  0  0
   -7.7102   13.0330  -13.0298 Cl  0  0  0  0  0  0  0  0  0  0  0  0
   -9.0199   10.6946  -12.7662 C   0  0  0  0  0  0  0  0  0  0  0  0
  -13.4271    7.4675  -15.2048 C   0  0  0  0  0  0  0  0  0  0  0  0
  1  2  1  0
  2  3  1  0
  3  4  2  0
  4  5  1  0
  5  6  2  0
  6  7  1  0
  7  8  1  0
  8  9  1  0
  9 10  2  0
 10 11  1  0
 12  2  1  6
 12 13  1  0
 13 14  1  0
 14 15  1  0
 15 16  1  0
 16 17  1  0
 17 18  2  0
 17 19  1  0
 19 20  1  0
 20 21  1  0
 21 22  2  0
 22 23  1  0
 23 24  1  0
 23 25  2  0
 25 26  1  0
 26 27  1  0
 26 28  2  0
 16 29  1  0
 11  3  1  0
 29 12  1  0
 11  7  2  0
 28 21  1  0
M  END
$$$$
