
     RDKit          3D

 29 32  0  0  0  0  0  0  0  0999 V2000
  -12.9334    6.4322  -18.6523 C   0  0  0  0  0  0  0  0  0  0  0  0
  -14.1430    6.5377  -17.8509 N   0  0  0  0  0  0  0  0  0  0  0  0
  -15.2989    5.8191  -18.2606 C   0  0  0  0  0  0  0  0  0  0  0  0
  -15.4312    5.2451  -19.4810 N   0  0  0  0  0  0  0  0  0  0  0  0
  -16.5381    4.5624  -19.8068 C   0  0  0  0  0  0  0  0  0  0  0  0
  -17.5257    4.4507  -18.9039 N   0  0  0  0  0  0  0  0  0  0  0  0
  -17.4491    4.9992  -17.6788 C   0  0  0  0  0  0  0  0  0  0  0  0
  -18.2983    5.0243  -16.6122 N   0  0  0  0  0  0  0  0  0  0  0  0
  -17.7302    5.7212  -15.6137 C   0  0  0  0  0  0  0  0  0  0  0  0
  -16.4963    6.1518  -16.0434 C   0  0  0  0  0  0  0  0  0  0  0  0
  -16.3372    5.6945  -17.3290 C   0  0  0  0  0  0  0  0  0  0  0  0
  -14.2083    7.3379  -16.6567 C   0  0  2  0  0  0  0  0  0  0  0  0
  -14.4467    8.7872  -16.8577 C   0  0  0  0  0  0  0  0  0  0  0  0
  -13.4138    9.6647  -16.1873 C   0  0  0  0  0  0  0  0  0  0  0  0
  -12.0220    9.2020  -16.4564 C   0  0  0  0  0  0  0  0  0  0  0  0
  -11.8780    7.8422  -16.0159 N   0  0  0  0  0  0  0  0  0  0  0  0
  -10.5730    7.3114  -15.8897 C   0  0  0  0  0  0  0  0  0  0  0  0
  -10.2636    6.3243  -16.5975 O   0  0  0  0  0  0  0  0  0  0  0  0
   -9.5622    7.8731  -14.9586 C   0  0  0  0  0  0  0  0  0  0  0  0
   -9.1634    6.9205  -13.9531 N   0  0  0  0  0  0  0  0  0  0  0  0
   -9.6581    7.0210  -12.6381 C   0  0  0  0  0  0  0  0  0  0  0  0
   -9.9385    8.2940  -12.1286 C   0  0  0  0  0  0  0  0  0  0  0  0
  -10.4251    8.4190  -10.8679 C   0  0  0  0  0  0  0  0  0  0  0  0
  -10.7724   10.0301  -10.2429 Cl  0  0  0  0  0  0  0  0  0  0  0  0
  -10.6408    7.3106  -10.0985 C   0  0  0  0  0  0  0  0  0  0  0  0
  -10.3737    6.0575  -10.5771 C   0  0  0  0  0  0  0  0  0  0  0  0
  -10.6520    4.6465   -9.5878 Cl  0  0  0  0  0  0  0  0  0  0  0  0
   -9.8842    5.9060  -11.8411 C   0  0  0  0  0  0  0  0  0  0  0  0
  -13.0455    7.0764  -15.7221 C   0  0  0  0  0  0  0  0  0  0  0  0
  1  2  1  0
  2  3  1  0
  3  4  2  0
  4  5  1  0
  5  6  2  0
  6  7  1  0
  7  8  1  0
  8  9  1  0
  9 10  2  0
 10 11  1  0
 12  2  1  6
 12 13  1  0
 13 14  1  0
 14 15  1  0
 15 16  1  0
 16 17  1  0
 17 18  2  0
 17 19  1  0
 19 20  1  0
 20 21  1  0
 21 22  2  0
 22 23  1  0
 23 24  1  0
 23 25  2  0
 25 26  1  0
 26 27  1  0
 26 28  2  0
 16 29  1  0
 11  3  1  0
 29 12  1  0
 11  7  2  0
 28 21  1  0
M  END
$$$$
