
     RDKit          3D

 12 12  0  0  0  0  0  0  0  0999 V2000
    7.9613  143.4539   98.1309 O   0  0  0  0  0  0  0  0  0  0  0  0
    7.1685  143.2210   99.0761 C   0  0  0  0  0  0  0  0  0  0  0  0
    5.8175  143.4874   98.8100 O   0  0  0  0  0  0  0  0  0  0  0  0
    7.4972  142.7118  100.3982 C   0  0  0  0  0  0  0  0  0  0  0  0
    8.8798  142.2032  100.5757 C   0  0  2  0  0  0  0  0  0  0  0  0
    9.2135  140.9643   99.8162 C   0  0  0  0  0  0  0  0  0  0  0  0
   10.4692  140.5249  100.4839 C   0  0  0  0  0  0  0  0  0  0  0  0
   11.4550  139.9265   99.9926 O   0  0  0  0  0  0  0  0  0  0  0  0
   10.3271  140.9320  101.8403 N   0  0  0  0  0  0  0  0  0  0  0  0
   11.1466  140.5805  102.8774 O   0  0  0  0  0  0  0  0  0  0  0  0
    9.1805  141.7801  101.9704 C   0  0  0  0  0  0  0  0  0  0  0  0
    8.6075  142.0609  103.0536 O   0  0  0  0  0  0  0  0  0  0  0  0
  1  2  2  0
  2  3  1  0
  2  4  1  0
  5  4  1  1
  5  6  1  0
  6  7  1  0
  7  8  2  0
  7  9  1  0
  9 10  1  0
  9 11  1  0
 11 12  2  0
 11  5  1  0
M  END
$$$$
