
     RDKit          3D

 12 12  0  0  0  0  0  0  0  0999 V2000
    5.8408  143.4851   98.8342 O   0  0  0  0  0  0  0  0  0  0  0  0
    6.9785  143.1057   99.2053 C   0  0  0  0  0  0  0  0  0  0  0  0
    8.0251  143.3722   98.3107 O   0  0  0  0  0  0  0  0  0  0  0  0
    7.3214  142.4290  100.4462 C   0  0  0  0  0  0  0  0  0  0  0  0
    8.7501  142.0668  100.6179 C   0  0  2  0  0  0  0  0  0  0  0  0
    9.2269  140.9174   99.7968 C   0  0  0  0  0  0  0  0  0  0  0  0
   10.5169  140.5820  100.4596 C   0  0  0  0  0  0  0  0  0  0  0  0
   11.5679  140.1248   99.9522 O   0  0  0  0  0  0  0  0  0  0  0  0
   10.3168  140.8934  101.8339 N   0  0  0  0  0  0  0  0  0  0  0  0
   11.1597  140.5762  102.8632 O   0  0  0  0  0  0  0  0  0  0  0  0
    9.0818  141.6011  101.9919 C   0  0  0  0  0  0  0  0  0  0  0  0
    8.4703  141.7552  103.0794 O   0  0  0  0  0  0  0  0  0  0  0  0
  1  2  2  0
  2  3  1  0
  2  4  1  0
  5  4  1  1
  5  6  1  0
  6  7  1  0
  7  8  2  0
  7  9  1  0
  9 10  1  0
  9 11  1  0
 11 12  2  0
 11  5  1  0
M  END
$$$$
