
     RDKit          3D

 12 12  0  0  0  0  0  0  0  0999 V2000
    8.0339  143.2488   97.9880 O   0  0  0  0  0  0  0  0  0  0  0  0
    7.2737  143.2594   98.9870 C   0  0  0  0  0  0  0  0  0  0  0  0
    5.9822  143.7556   98.7573 O   0  0  0  0  0  0  0  0  0  0  0  0
    7.5853  142.8181  100.3374 C   0  0  0  0  0  0  0  0  0  0  0  0
    8.9412  142.2511  100.5413 C   0  0  2  0  0  0  0  0  0  0  0  0
    9.2089  140.9563   99.8522 C   0  0  0  0  0  0  0  0  0  0  0  0
   10.4437  140.4922  100.5419 C   0  0  0  0  0  0  0  0  0  0  0  0
   11.3960  139.8181  100.0837 O   0  0  0  0  0  0  0  0  0  0  0  0
   10.3280  140.9813  101.8735 N   0  0  0  0  0  0  0  0  0  0  0  0
   11.1330  140.6475  102.9276 O   0  0  0  0  0  0  0  0  0  0  0  0
    9.2261  141.8922  101.9572 C   0  0  0  0  0  0  0  0  0  0  0  0
    8.6725  142.2619  103.0237 O   0  0  0  0  0  0  0  0  0  0  0  0
  1  2  2  0
  2  3  1  0
  2  4  1  0
  5  4  1  1
  5  6  1  0
  6  7  1  0
  7  8  2  0
  7  9  1  0
  9 10  1  0
  9 11  1  0
 11 12  2  0
 11  5  1  0
M  END
$$$$
