
     RDKit          3D

 12 12  0  0  0  0  0  0  0  0999 V2000
    5.9513  143.4765   98.6372 O   0  0  0  0  0  0  0  0  0  0  0  0
    7.0891  143.1462   99.0523 C   0  0  0  0  0  0  0  0  0  0  0  0
    8.1385  143.3183   98.1380 O   0  0  0  0  0  0  0  0  0  0  0  0
    7.4298  142.6119  100.3615 C   0  0  0  0  0  0  0  0  0  0  0  0
    8.8236  142.1306  100.5266 C   0  0  2  0  0  0  0  0  0  0  0  0
    9.1595  140.8689   99.8067 C   0  0  0  0  0  0  0  0  0  0  0  0
   10.4363  140.4734  100.4619 C   0  0  0  0  0  0  0  0  0  0  0  0
   11.4201  139.8713   99.9712 O   0  0  0  0  0  0  0  0  0  0  0  0
   10.3179  140.9294  101.8049 N   0  0  0  0  0  0  0  0  0  0  0  0
   11.1654  140.6293  102.8357 O   0  0  0  0  0  0  0  0  0  0  0  0
    9.1615  141.7650  101.9290 C   0  0  0  0  0  0  0  0  0  0  0  0
    8.6083  142.0782  103.0136 O   0  0  0  0  0  0  0  0  0  0  0  0
  1  2  2  0
  2  3  1  0
  2  4  1  0
  5  4  1  1
  5  6  1  0
  6  7  1  0
  7  8  2  0
  7  9  1  0
  9 10  1  0
  9 11  1  0
 11 12  2  0
 11  5  1  0
M  END
$$$$
