
     RDKit          3D

 12 12  0  0  0  0  0  0  0  0999 V2000
    7.9999  143.3540   98.0462 O   0  0  0  0  0  0  0  0  0  0  0  0
    7.2045  143.1876   99.0032 C   0  0  0  0  0  0  0  0  0  0  0  0
    5.8695  143.5309   98.7450 O   0  0  0  0  0  0  0  0  0  0  0  0
    7.5159  142.6839  100.3316 C   0  0  0  0  0  0  0  0  0  0  0  0
    8.8911  142.1614  100.5249 C   0  0  2  0  0  0  0  0  0  0  0  0
    9.2042  140.8906   99.8109 C   0  0  0  0  0  0  0  0  0  0  0  0
   10.4549  140.4571  100.4917 C   0  0  0  0  0  0  0  0  0  0  0  0
   11.4303  139.8262  100.0208 O   0  0  0  0  0  0  0  0  0  0  0  0
   10.3224  140.9158  101.8326 N   0  0  0  0  0  0  0  0  0  0  0  0
   11.1392  140.5903  102.8802 O   0  0  0  0  0  0  0  0  0  0  0  0
    9.1890  141.7854  101.9336 C   0  0  0  0  0  0  0  0  0  0  0  0
    8.6231  142.1144  103.0069 O   0  0  0  0  0  0  0  0  0  0  0  0
  1  2  2  0
  2  3  1  0
  2  4  1  0
  5  4  1  1
  5  6  1  0
  6  7  1  0
  7  8  2  0
  7  9  1  0
  9 10  1  0
  9 11  1  0
 11 12  2  0
 11  5  1  0
M  END
$$$$
