
     RDKit          3D

 12 12  0  0  0  0  0  0  0  0999 V2000
    7.8441  143.3495   98.2214 O   0  0  0  0  0  0  0  0  0  0  0  0
    7.0847  143.1595   99.2028 C   0  0  0  0  0  0  0  0  0  0  0  0
    5.7427  143.5161   99.0055 O   0  0  0  0  0  0  0  0  0  0  0  0
    7.4433  142.6167  100.5036 C   0  0  0  0  0  0  0  0  0  0  0  0
    8.8317  142.1110  100.6387 C   0  0  2  0  0  0  0  0  0  0  0  0
    9.1414  140.8666   99.8782 C   0  0  0  0  0  0  0  0  0  0  0  0
   10.4194  140.4337  100.5069 C   0  0  0  0  0  0  0  0  0  0  0  0
   11.3890  139.8326   99.9876 O   0  0  0  0  0  0  0  0  0  0  0  0
   10.3222  140.8513  101.8641 N   0  0  0  0  0  0  0  0  0  0  0  0
   11.1763  140.5087  102.8759 O   0  0  0  0  0  0  0  0  0  0  0  0
    9.1794  141.6991  102.0259 C   0  0  0  0  0  0  0  0  0  0  0  0
    8.6426  141.9878  103.1254 O   0  0  0  0  0  0  0  0  0  0  0  0
  1  2  2  0
  2  3  1  0
  2  4  1  0
  5  4  1  1
  5  6  1  0
  6  7  1  0
  7  8  2  0
  7  9  1  0
  9 10  1  0
  9 11  1  0
 11 12  2  0
 11  5  1  0
M  END
$$$$
