
     RDKit          3D

 12 12  0  0  0  0  0  0  0  0999 V2000
    6.0088  143.5676   98.8481 O   0  0  0  0  0  0  0  0  0  0  0  0
    7.1457  143.1873   99.2208 C   0  0  0  0  0  0  0  0  0  0  0  0
    8.1672  143.3157   98.2685 O   0  0  0  0  0  0  0  0  0  0  0  0
    7.5108  142.6360  100.5162 C   0  0  0  0  0  0  0  0  0  0  0  0
    8.9054  142.1465  100.6467 C   0  0  2  0  0  0  0  0  0  0  0  0
    9.2376  140.9278   99.8548 C   0  0  0  0  0  0  0  0  0  0  0  0
   10.5177  140.4960  100.4799 C   0  0  0  0  0  0  0  0  0  0  0  0
   11.4990  139.9230   99.9510 O   0  0  0  0  0  0  0  0  0  0  0  0
   10.4061  140.8750  101.8473 N   0  0  0  0  0  0  0  0  0  0  0  0
   11.2587  140.5172  102.8551 O   0  0  0  0  0  0  0  0  0  0  0  0
    9.2504  141.7020  102.0245 C   0  0  0  0  0  0  0  0  0  0  0  0
    8.7026  141.9530  103.1278 O   0  0  0  0  0  0  0  0  0  0  0  0
  1  2  2  0
  2  3  1  0
  2  4  1  0
  5  4  1  1
  5  6  1  0
  6  7  1  0
  7  8  2  0
  7  9  1  0
  9 10  1  0
  9 11  1  0
 11 12  2  0
 11  5  1  0
M  END
$$$$
