
     RDKit          3D

 12 12  0  0  0  0  0  0  0  0999 V2000
    7.8873  143.3242   98.2396 O   0  0  0  0  0  0  0  0  0  0  0  0
    7.1359  143.1318   99.2267 C   0  0  0  0  0  0  0  0  0  0  0  0
    5.7899  143.4769   99.0369 O   0  0  0  0  0  0  0  0  0  0  0  0
    7.5074  142.5969  100.5272 C   0  0  0  0  0  0  0  0  0  0  0  0
    8.8925  142.0785  100.6474 C   0  0  2  0  0  0  0  0  0  0  0  0
    9.1773  140.8207   99.8992 C   0  0  0  0  0  0  0  0  0  0  0  0
   10.4606  140.3831  100.5137 C   0  0  0  0  0  0  0  0  0  0  0  0
   11.4156  139.7648   99.9875 O   0  0  0  0  0  0  0  0  0  0  0  0
   10.3893  140.8200  101.8664 N   0  0  0  0  0  0  0  0  0  0  0  0
   11.2558  140.4824  102.8692 O   0  0  0  0  0  0  0  0  0  0  0  0
    9.2580  141.6820  102.0344 C   0  0  0  0  0  0  0  0  0  0  0  0
    8.7417  141.9912  103.1381 O   0  0  0  0  0  0  0  0  0  0  0  0
  1  2  2  0
  2  3  1  0
  2  4  1  0
  5  4  1  1
  5  6  1  0
  6  7  1  0
  7  8  2  0
  7  9  1  0
  9 10  1  0
  9 11  1  0
 11 12  2  0
 11  5  1  0
M  END
$$$$
