
     RDKit          3D

 12 12  0  0  0  0  0  0  0  0999 V2000
    7.9446  143.1897   98.0308 O   0  0  0  0  0  0  0  0  0  0  0  0
    7.1940  143.1641   99.0368 C   0  0  0  0  0  0  0  0  0  0  0  0
    5.8933  143.6467   98.8317 O   0  0  0  0  0  0  0  0  0  0  0  0
    7.5251  142.6940  100.3727 C   0  0  0  0  0  0  0  0  0  0  0  0
    8.8953  142.1536  100.5527 C   0  0  2  0  0  0  0  0  0  0  0  0
    9.1761  140.8643   99.8587 C   0  0  0  0  0  0  0  0  0  0  0  0
   10.4316  140.4244  100.5265 C   0  0  0  0  0  0  0  0  0  0  0  0
   11.3887  139.7691  100.0515 O   0  0  0  0  0  0  0  0  0  0  0  0
   10.3297  140.9113  101.8600 N   0  0  0  0  0  0  0  0  0  0  0  0
   11.1595  140.5935  102.8998 O   0  0  0  0  0  0  0  0  0  0  0  0
    9.2118  141.8005  101.9633 C   0  0  0  0  0  0  0  0  0  0  0  0
    8.6699  142.1594  103.0394 O   0  0  0  0  0  0  0  0  0  0  0  0
  1  2  2  0
  2  3  1  0
  2  4  1  0
  5  4  1  1
  5  6  1  0
  6  7  1  0
  7  8  2  0
  7  9  1  0
  9 10  1  0
  9 11  1  0
 11 12  2  0
 11  5  1  0
M  END
$$$$
