
     RDKit          3D

 12 12  0  0  0  0  0  0  0  0999 V2000
    6.0001  143.5463   98.5349 O   0  0  0  0  0  0  0  0  0  0  0  0
    7.1131  143.1547   98.9639 C   0  0  0  0  0  0  0  0  0  0  0  0
    8.1590  143.1693   98.0298 O   0  0  0  0  0  0  0  0  0  0  0  0
    7.4284  142.6942  100.3070 C   0  0  0  0  0  0  0  0  0  0  0  0
    8.8181  142.2218  100.5246 C   0  0  2  0  0  0  0  0  0  0  0  0
    9.1983  140.9789   99.7941 C   0  0  0  0  0  0  0  0  0  0  0  0
   10.4481  140.5806  100.4977 C   0  0  0  0  0  0  0  0  0  0  0  0
   11.4589  139.9980  100.0393 O   0  0  0  0  0  0  0  0  0  0  0  0
   10.2651  141.0064  101.8434 N   0  0  0  0  0  0  0  0  0  0  0  0
   11.0682  140.6916  102.9047 O   0  0  0  0  0  0  0  0  0  0  0  0
    9.0962  141.8289  101.9328 C   0  0  0  0  0  0  0  0  0  0  0  0
    8.4917  142.1137  102.9977 O   0  0  0  0  0  0  0  0  0  0  0  0
  1  2  2  0
  2  3  1  0
  2  4  1  0
  5  4  1  1
  5  6  1  0
  6  7  1  0
  7  8  2  0
  7  9  1  0
  9 10  1  0
  9 11  1  0
 11 12  2  0
 11  5  1  0
M  END
$$$$
