
     RDKit          3D

 12 12  0  0  0  0  0  0  0  0999 V2000
    8.0101  143.1930   97.9440 O   0  0  0  0  0  0  0  0  0  0  0  0
    7.2350  143.1227   98.9291 C   0  0  0  0  0  0  0  0  0  0  0  0
    5.9126  143.5214   98.6861 O   0  0  0  0  0  0  0  0  0  0  0  0
    7.5579  142.6783  100.2758 C   0  0  0  0  0  0  0  0  0  0  0  0
    8.9246  142.1350  100.4728 C   0  0  2  0  0  0  0  0  0  0  0  0
    9.2010  140.8289   99.8093 C   0  0  0  0  0  0  0  0  0  0  0  0
   10.4519  140.3977  100.4913 C   0  0  0  0  0  0  0  0  0  0  0  0
   11.4072  139.7269  100.0347 O   0  0  0  0  0  0  0  0  0  0  0  0
   10.3480  140.9153  101.8131 N   0  0  0  0  0  0  0  0  0  0  0  0
   11.1725  140.6168  102.8627 O   0  0  0  0  0  0  0  0  0  0  0  0
    9.2345  141.8124  101.8922 C   0  0  0  0  0  0  0  0  0  0  0  0
    8.6908  142.1985  102.9579 O   0  0  0  0  0  0  0  0  0  0  0  0
  1  2  2  0
  2  3  1  0
  2  4  1  0
  5  4  1  1
  5  6  1  0
  6  7  1  0
  7  8  2  0
  7  9  1  0
  9 10  1  0
  9 11  1  0
 11 12  2  0
 11  5  1  0
M  END
$$$$
