
     RDKit          3D

 12 12  0  0  0  0  0  0  0  0999 V2000
    5.9943  143.7656   98.5925 O   0  0  0  0  0  0  0  0  0  0  0  0
    7.0777  143.2855   99.0070 C   0  0  0  0  0  0  0  0  0  0  0  0
    8.1591  143.3816   98.1193 O   0  0  0  0  0  0  0  0  0  0  0  0
    7.3269  142.6497  100.2911 C   0  0  0  0  0  0  0  0  0  0  0  0
    8.7309  142.2518  100.5599 C   0  0  2  0  0  0  0  0  0  0  0  0
    9.2188  141.0609   99.8072 C   0  0  0  0  0  0  0  0  0  0  0  0
   10.4563  140.7110  100.5568 C   0  0  0  0  0  0  0  0  0  0  0  0
   11.5205  140.2057  100.1286 O   0  0  0  0  0  0  0  0  0  0  0  0
   10.1856  141.0758  101.9056 N   0  0  0  0  0  0  0  0  0  0  0  0
   10.9561  140.7699  102.9935 O   0  0  0  0  0  0  0  0  0  0  0  0
    8.9664  141.8246  101.9659 C   0  0  0  0  0  0  0  0  0  0  0  0
    8.2970  142.0344  103.0092 O   0  0  0  0  0  0  0  0  0  0  0  0
  1  2  2  0
  2  3  1  0
  2  4  1  0
  5  4  1  1
  5  6  1  0
  6  7  1  0
  7  8  2  0
  7  9  1  0
  9 10  1  0
  9 11  1  0
 11 12  2  0
 11  5  1  0
M  END
$$$$
