
     RDKit          3D

 12 12  0  0  0  0  0  0  0  0999 V2000
    7.9135  143.4334   98.1681 O   0  0  0  0  0  0  0  0  0  0  0  0
    7.1445  143.2787   99.1483 C   0  0  0  0  0  0  0  0  0  0  0  0
    5.8376  143.7557   98.9712 O   0  0  0  0  0  0  0  0  0  0  0  0
    7.4602  142.6664  100.4292 C   0  0  0  0  0  0  0  0  0  0  0  0
    8.8513  142.1765  100.5924 C   0  0  2  0  0  0  0  0  0  0  0  0
    9.2042  140.9625   99.8022 C   0  0  0  0  0  0  0  0  0  0  0  0
   10.4681  140.5276  100.4573 C   0  0  0  0  0  0  0  0  0  0  0  0
   11.4628  139.9579   99.9502 O   0  0  0  0  0  0  0  0  0  0  0  0
   10.3215  140.8987  101.8235 N   0  0  0  0  0  0  0  0  0  0  0  0
   11.1483  140.5353  102.8506 O   0  0  0  0  0  0  0  0  0  0  0  0
    9.1612  141.7242  101.9759 C   0  0  0  0  0  0  0  0  0  0  0  0
    8.5854  141.9687  103.0664 O   0  0  0  0  0  0  0  0  0  0  0  0
  1  2  2  0
  2  3  1  0
  2  4  1  0
  5  4  1  1
  5  6  1  0
  6  7  1  0
  7  8  2  0
  7  9  1  0
  9 10  1  0
  9 11  1  0
 11 12  2  0
 11  5  1  0
M  END
$$$$
