
     RDKit          3D

 12 12  0  0  0  0  0  0  0  0999 V2000
    5.9671  143.5501   98.5051 O   0  0  0  0  0  0  0  0  0  0  0  0
    7.0926  143.2242   98.9558 C   0  0  0  0  0  0  0  0  0  0  0  0
    8.1681  143.3905   98.0712 O   0  0  0  0  0  0  0  0  0  0  0  0
    7.3953  142.7003  100.2784 C   0  0  0  0  0  0  0  0  0  0  0  0
    8.7841  142.2218  100.4878 C   0  0  2  0  0  0  0  0  0  0  0  0
    9.1595  140.9862   99.7427 C   0  0  0  0  0  0  0  0  0  0  0  0
   10.4098  140.5768  100.4392 C   0  0  0  0  0  0  0  0  0  0  0  0
   11.4180  139.9966   99.9723 O   0  0  0  0  0  0  0  0  0  0  0  0
   10.2306  140.9881  101.7900 N   0  0  0  0  0  0  0  0  0  0  0  0
   11.0351  140.6594  102.8461 O   0  0  0  0  0  0  0  0  0  0  0  0
    9.0641  141.8126  101.8910 C   0  0  0  0  0  0  0  0  0  0  0  0
    8.4626  142.0872  102.9602 O   0  0  0  0  0  0  0  0  0  0  0  0
  1  2  2  0
  2  3  1  0
  2  4  1  0
  5  4  1  1
  5  6  1  0
  6  7  1  0
  7  8  2  0
  7  9  1  0
  9 10  1  0
  9 11  1  0
 11 12  2  0
 11  5  1  0
M  END
$$$$
