
     RDKit          3D

 12 12  0  0  0  0  0  0  0  0999 V2000
    7.9530  143.4147   98.2496 O   0  0  0  0  0  0  0  0  0  0  0  0
    7.1716  143.1494   99.1957 C   0  0  0  0  0  0  0  0  0  0  0  0
    5.8187  143.4328   98.9586 O   0  0  0  0  0  0  0  0  0  0  0  0
    7.5151  142.5875  100.4925 C   0  0  0  0  0  0  0  0  0  0  0  0
    8.9093  142.1028  100.6443 C   0  0  2  0  0  0  0  0  0  0  0  0
    9.2485  140.8665   99.8832 C   0  0  0  0  0  0  0  0  0  0  0  0
   10.5244  140.4510  100.5273 C   0  0  0  0  0  0  0  0  0  0  0  0
   11.5101  139.8670  100.0188 O   0  0  0  0  0  0  0  0  0  0  0  0
   10.4027  140.8614  101.8847 N   0  0  0  0  0  0  0  0  0  0  0  0
   11.2484  140.5280  102.9066 O   0  0  0  0  0  0  0  0  0  0  0  0
    9.2448  141.6908  102.0344 C   0  0  0  0  0  0  0  0  0  0  0  0
    8.6889  141.9666  103.1277 O   0  0  0  0  0  0  0  0  0  0  0  0
  1  2  2  0
  2  3  1  0
  2  4  1  0
  5  4  1  1
  5  6  1  0
  6  7  1  0
  7  8  2  0
  7  9  1  0
  9 10  1  0
  9 11  1  0
 11 12  2  0
 11  5  1  0
M  END
$$$$
