
     RDKit          3D

 12 12  0  0  0  0  0  0  0  0999 V2000
    5.9883  143.4534   98.6366 O   0  0  0  0  0  0  0  0  0  0  0  0
    7.1300  143.1182   99.0370 C   0  0  0  0  0  0  0  0  0  0  0  0
    8.1704  143.2994   98.1142 O   0  0  0  0  0  0  0  0  0  0  0  0
    7.4832  142.5700  100.3370 C   0  0  0  0  0  0  0  0  0  0  0  0
    8.8771  142.0823  100.4820 C   0  0  2  0  0  0  0  0  0  0  0  0
    9.2006  140.8267   99.7461 C   0  0  0  0  0  0  0  0  0  0  0  0
   10.4831  140.4203  100.3831 C   0  0  0  0  0  0  0  0  0  0  0  0
   11.4593  139.8198   99.8757 O   0  0  0  0  0  0  0  0  0  0  0  0
   10.3811  140.8634  101.7318 N   0  0  0  0  0  0  0  0  0  0  0  0
   11.2388  140.5502  102.7501 O   0  0  0  0  0  0  0  0  0  0  0  0
    9.2291  141.7017  101.8769 C   0  0  0  0  0  0  0  0  0  0  0  0
    8.6889  142.0060  102.9706 O   0  0  0  0  0  0  0  0  0  0  0  0
  1  2  2  0
  2  3  1  0
  2  4  1  0
  5  4  1  1
  5  6  1  0
  6  7  1  0
  7  8  2  0
  7  9  1  0
  9 10  1  0
  9 11  1  0
 11 12  2  0
 11  5  1  0
M  END
$$$$
