
     RDKit          3D

 12 12  0  0  0  0  0  0  0  0999 V2000
    8.0000  143.3431   97.9577 O   0  0  0  0  0  0  0  0  0  0  0  0
    7.1924  143.1985   98.9079 C   0  0  0  0  0  0  0  0  0  0  0  0
    5.8785  143.6173   98.6522 O   0  0  0  0  0  0  0  0  0  0  0  0
    7.4702  142.6509  100.2263 C   0  0  0  0  0  0  0  0  0  0  0  0
    8.8548  142.1680  100.4531 C   0  0  2  0  0  0  0  0  0  0  0  0
    9.2384  140.9361   99.7062 C   0  0  0  0  0  0  0  0  0  0  0  0
   10.4775  140.5197  100.4183 C   0  0  0  0  0  0  0  0  0  0  0  0
   11.4912  139.9401   99.9626 O   0  0  0  0  0  0  0  0  0  0  0  0
   10.2795  140.9233  101.7687 N   0  0  0  0  0  0  0  0  0  0  0  0
   11.0678  140.5865  102.8344 O   0  0  0  0  0  0  0  0  0  0  0  0
    9.1134  141.7498  101.8577 C   0  0  0  0  0  0  0  0  0  0  0  0
    8.4969  142.0193  102.9197 O   0  0  0  0  0  0  0  0  0  0  0  0
  1  2  2  0
  2  3  1  0
  2  4  1  0
  5  4  1  1
  5  6  1  0
  6  7  1  0
  7  8  2  0
  7  9  1  0
  9 10  1  0
  9 11  1  0
 11 12  2  0
 11  5  1  0
M  END
$$$$
