
     RDKit          3D

 12 12  0  0  0  0  0  0  0  0999 V2000
    7.9494  143.3623   98.0765 O   0  0  0  0  0  0  0  0  0  0  0  0
    7.1596  143.2669   99.0477 C   0  0  0  0  0  0  0  0  0  0  0  0
    5.8653  143.7582   98.8234 O   0  0  0  0  0  0  0  0  0  0  0  0
    7.4400  142.7091  100.3613 C   0  0  0  0  0  0  0  0  0  0  0  0
    8.8297  142.2410  100.5877 C   0  0  2  0  0  0  0  0  0  0  0  0
    9.2283  141.0171   99.8354 C   0  0  0  0  0  0  0  0  0  0  0  0
   10.4711  140.6115  100.5473 C   0  0  0  0  0  0  0  0  0  0  0  0
   11.4919  140.0457  100.0902 O   0  0  0  0  0  0  0  0  0  0  0  0
   10.2668  141.0064  101.8994 N   0  0  0  0  0  0  0  0  0  0  0  0
   11.0575  140.6735  102.9645 O   0  0  0  0  0  0  0  0  0  0  0  0
    9.0912  141.8191  101.9907 C   0  0  0  0  0  0  0  0  0  0  0  0
    8.4703  142.0765  103.0531 O   0  0  0  0  0  0  0  0  0  0  0  0
  1  2  2  0
  2  3  1  0
  2  4  1  0
  5  4  1  1
  5  6  1  0
  6  7  1  0
  7  8  2  0
  7  9  1  0
  9 10  1  0
  9 11  1  0
 11 12  2  0
 11  5  1  0
M  END
$$$$
