
     RDKit          3D

 12 12  0  0  0  0  0  0  0  0999 V2000
    7.9077  143.4114   98.0240 O   0  0  0  0  0  0  0  0  0  0  0  0
    7.1049  143.2602   98.9773 C   0  0  0  0  0  0  0  0  0  0  0  0
    5.7927  143.6922   98.7354 O   0  0  0  0  0  0  0  0  0  0  0  0
    7.3868  142.6930  100.2865 C   0  0  0  0  0  0  0  0  0  0  0  0
    8.7750  142.2169  100.5055 C   0  0  2  0  0  0  0  0  0  0  0  0
    9.1630  140.9916   99.7500 C   0  0  0  0  0  0  0  0  0  0  0  0
   10.4070  140.5784  100.4552 C   0  0  0  0  0  0  0  0  0  0  0  0
   11.4224  140.0074   99.9926 O   0  0  0  0  0  0  0  0  0  0  0  0
   10.2116  140.9728  101.8087 N   0  0  0  0  0  0  0  0  0  0  0  0
   11.0056  140.6344  102.8696 O   0  0  0  0  0  0  0  0  0  0  0  0
    9.0410  141.7920  101.9067 C   0  0  0  0  0  0  0  0  0  0  0  0
    8.4268  142.0516  102.9725 O   0  0  0  0  0  0  0  0  0  0  0  0
  1  2  2  0
  2  3  1  0
  2  4  1  0
  5  4  1  1
  5  6  1  0
  6  7  1  0
  7  8  2  0
  7  9  1  0
  9 10  1  0
  9 11  1  0
 11 12  2  0
 11  5  1  0
M  END
$$$$
