
     RDKit          3D

 12 12  0  0  0  0  0  0  0  0999 V2000
    7.7791  143.4011   98.2950 O   0  0  0  0  0  0  0  0  0  0  0  0
    7.0023  143.1160   99.2391 C   0  0  0  0  0  0  0  0  0  0  0  0
    5.6573  143.4589   99.0384 O   0  0  0  0  0  0  0  0  0  0  0  0
    7.3438  142.4772  100.5002 C   0  0  0  0  0  0  0  0  0  0  0  0
    8.7670  142.0943  100.6727 C   0  0  2  0  0  0  0  0  0  0  0  0
    9.2413  140.9720   99.8135 C   0  0  0  0  0  0  0  0  0  0  0  0
   10.5208  140.5988  100.4763 C   0  0  0  0  0  0  0  0  0  0  0  0
   11.5727  140.1505   99.9627 O   0  0  0  0  0  0  0  0  0  0  0  0
   10.3092  140.8600  101.8593 N   0  0  0  0  0  0  0  0  0  0  0  0
   11.1380  140.4957  102.8845 O   0  0  0  0  0  0  0  0  0  0  0  0
    9.0796  141.5737  102.0313 C   0  0  0  0  0  0  0  0  0  0  0  0
    8.4580  141.6927  103.1176 O   0  0  0  0  0  0  0  0  0  0  0  0
  1  2  2  0
  2  3  1  0
  2  4  1  0
  5  4  1  1
  5  6  1  0
  6  7  1  0
  7  8  2  0
  7  9  1  0
  9 10  1  0
  9 11  1  0
 11 12  2  0
 11  5  1  0
M  END
$$$$
