
     RDKit          3D

 12 12  0  0  0  0  0  0  0  0999 V2000
    8.0209  143.2441   97.9756 O   0  0  0  0  0  0  0  0  0  0  0  0
    7.2287  143.1544   98.9453 C   0  0  0  0  0  0  0  0  0  0  0  0
    5.9307  143.6305   98.7102 O   0  0  0  0  0  0  0  0  0  0  0  0
    7.5098  142.6170  100.2673 C   0  0  0  0  0  0  0  0  0  0  0  0
    8.8966  142.1419  100.4965 C   0  0  2  0  0  0  0  0  0  0  0  0
    9.2741  140.8871   99.7852 C   0  0  0  0  0  0  0  0  0  0  0  0
   10.5198  140.4937  100.4988 C   0  0  0  0  0  0  0  0  0  0  0  0
   11.5296  139.9003  100.0523 O   0  0  0  0  0  0  0  0  0  0  0  0
   10.3340  140.9395  101.8376 N   0  0  0  0  0  0  0  0  0  0  0  0
   11.1321  140.6367  102.9061 O   0  0  0  0  0  0  0  0  0  0  0  0
    9.1682  141.7682  101.9112 C   0  0  0  0  0  0  0  0  0  0  0  0
    8.5614  142.0708  102.9698 O   0  0  0  0  0  0  0  0  0  0  0  0
  1  2  2  0
  2  3  1  0
  2  4  1  0
  5  4  1  1
  5  6  1  0
  6  7  1  0
  7  8  2  0
  7  9  1  0
  9 10  1  0
  9 11  1  0
 11 12  2  0
 11  5  1  0
M  END
$$$$
