
     RDKit          3D

 12 12  0  0  0  0  0  0  0  0999 V2000
    8.0429  143.5036   98.1466 O   0  0  0  0  0  0  0  0  0  0  0  0
    7.2199  143.2159   99.0499 C   0  0  0  0  0  0  0  0  0  0  0  0
    5.8842  143.5445   98.7763 O   0  0  0  0  0  0  0  0  0  0  0  0
    7.5002  142.5873  100.3312 C   0  0  0  0  0  0  0  0  0  0  0  0
    8.8982  142.1380  100.5449 C   0  0  2  0  0  0  0  0  0  0  0  0
    9.3085  140.9236   99.7835 C   0  0  0  0  0  0  0  0  0  0  0  0
   10.5623  140.5324  100.4841 C   0  0  0  0  0  0  0  0  0  0  0  0
   11.5876  139.9834  100.0166 O   0  0  0  0  0  0  0  0  0  0  0  0
   10.3625  140.9176  101.8396 N   0  0  0  0  0  0  0  0  0  0  0  0
   11.1658  140.5908  102.8972 O   0  0  0  0  0  0  0  0  0  0  0  0
    9.1761  141.7130  101.9437 C   0  0  0  0  0  0  0  0  0  0  0  0
    8.5596  141.9562  103.0120 O   0  0  0  0  0  0  0  0  0  0  0  0
  1  2  2  0
  2  3  1  0
  2  4  1  0
  5  4  1  1
  5  6  1  0
  6  7  1  0
  7  8  2  0
  7  9  1  0
  9 10  1  0
  9 11  1  0
 11 12  2  0
 11  5  1  0
M  END
$$$$
