
     RDKit          3D

 12 12  0  0  0  0  0  0  0  0999 V2000
    6.0141  143.5307   98.5562 O   0  0  0  0  0  0  0  0  0  0  0  0
    7.1367  143.1512   98.9705 C   0  0  0  0  0  0  0  0  0  0  0  0
    8.1888  143.2620   98.0499 O   0  0  0  0  0  0  0  0  0  0  0  0
    7.4575  142.6167  100.2846 C   0  0  0  0  0  0  0  0  0  0  0  0
    8.8493  142.1372  100.4713 C   0  0  2  0  0  0  0  0  0  0  0  0
    9.1977  140.8755   99.7574 C   0  0  0  0  0  0  0  0  0  0  0  0
   10.4648  140.4820  100.4322 C   0  0  0  0  0  0  0  0  0  0  0  0
   11.4567  139.8808   99.9570 O   0  0  0  0  0  0  0  0  0  0  0  0
   10.3253  140.9386  101.7730 N   0  0  0  0  0  0  0  0  0  0  0  0
   11.1573  140.6402  102.8168 O   0  0  0  0  0  0  0  0  0  0  0  0
    9.1662  141.7728  101.8789 C   0  0  0  0  0  0  0  0  0  0  0  0
    8.5960  142.0860  102.9547 O   0  0  0  0  0  0  0  0  0  0  0  0
  1  2  2  0
  2  3  1  0
  2  4  1  0
  5  4  1  1
  5  6  1  0
  6  7  1  0
  7  8  2  0
  7  9  1  0
  9 10  1  0
  9 11  1  0
 11 12  2  0
 11  5  1  0
M  END
$$$$
