
     RDKit          3D

 12 12  0  0  0  0  0  0  0  0999 V2000
    5.9431  143.5307   98.8826 O   0  0  0  0  0  0  0  0  0  0  0  0
    7.1063  143.2212   99.2392 C   0  0  0  0  0  0  0  0  0  0  0  0
    8.0956  143.3569   98.2545 O   0  0  0  0  0  0  0  0  0  0  0  0
    7.5308  142.7440  100.5459 C   0  0  0  0  0  0  0  0  0  0  0  0
    8.9065  142.1933  100.6234 C   0  0  2  0  0  0  0  0  0  0  0  0
    9.1455  140.9437   99.8461 C   0  0  0  0  0  0  0  0  0  0  0  0
   10.4328  140.4668  100.4216 C   0  0  0  0  0  0  0  0  0  0  0  0
   11.3611  139.8377   99.8616 O   0  0  0  0  0  0  0  0  0  0  0  0
   10.4032  140.8801  101.7833 N   0  0  0  0  0  0  0  0  0  0  0  0
   11.2854  140.5050  102.7588 O   0  0  0  0  0  0  0  0  0  0  0  0
    9.2957  141.7632  101.9939 C   0  0  0  0  0  0  0  0  0  0  0  0
    8.8125  142.0631  103.1151 O   0  0  0  0  0  0  0  0  0  0  0  0
  1  2  2  0
  2  3  1  0
  2  4  1  0
  5  4  1  1
  5  6  1  0
  6  7  1  0
  7  8  2  0
  7  9  1  0
  9 10  1  0
  9 11  1  0
 11 12  2  0
 11  5  1  0
M  END
$$$$
