
     RDKit          3D

 19 21  0  0  0  0  0  0  0  0999 V2000
   62.9308   -4.7384   83.3746 C   0  0  0  0  0  0  0  0  0  0  0  0
   62.4889   -6.0527   83.9507 C   0  0  0  0  0  0  0  0  0  0  0  0
   61.5390   -5.8964   85.1065 C   0  0  0  0  0  0  0  0  0  0  0  0
   60.4951   -6.8796   85.0422 N   0  0  0  0  0  0  0  0  0  0  0  0
   60.7201   -8.2646   85.3343 C   0  0  0  0  0  0  0  0  0  0  0  0
   61.8337   -8.9697   85.3708 N   0  0  0  0  0  0  0  0  0  0  0  0
   61.7962  -10.2133   85.6599 N   0  0  0  0  0  0  0  0  0  0  0  0
   62.7105  -11.2336   85.7910 C   0  0  0  0  0  0  0  0  0  0  0  0
   64.1584  -11.1476   85.6087 C   0  0  0  0  0  0  0  0  0  0  0  0
   65.0322  -12.1853   85.8299 C   0  0  0  0  0  0  0  0  0  0  0  0
   66.3943  -12.0753   85.6496 C   0  0  0  0  0  0  0  0  0  0  0  0
   66.9052  -10.8454   85.2206 C   0  0  0  0  0  0  0  0  0  0  0  0
   68.2786  -10.7486   85.0430 O   0  0  0  0  0  0  0  0  0  0  0  0
   66.0546   -9.7801   84.9885 C   0  0  0  0  0  0  0  0  0  0  0  0
   64.6788   -9.9460   85.1874 C   0  0  0  0  0  0  0  0  0  0  0  0
   62.0677  -12.4062   86.1319 C   0  0  0  0  0  0  0  0  0  0  0  0
   60.7630  -12.1139   86.2115 N   0  0  0  0  0  0  0  0  0  0  0  0
   60.6250  -10.7828   85.9220 C   0  0  0  0  0  0  0  0  0  0  0  0
   59.5566   -9.4451   85.7355 S   0  0  0  0  0  0  0  0  0  0  0  0
  1  2  1  0
  2  3  1  0
  3  4  1  0
  4  5  1  0
  5  6  2  0
  6  7  1  0
  7  8  1  0
  8  9  1  0
  9 10  2  0
 10 11  1  0
 11 12  2  0
 12 13  1  0
 12 14  1  0
 14 15  2  0
  8 16  2  0
 16 17  1  0
 17 18  2  0
 18 19  1  0
 19  5  1  0
 18  7  1  0
 15  9  1  0
M  END
$$$$
