
     RDKit          3D

 19 21  0  0  0  0  0  0  0  0999 V2000
   62.9789   -5.4715   83.0518 C   0  0  0  0  0  0  0  0  0  0  0  0
   61.5618   -5.3798   83.5399 C   0  0  0  0  0  0  0  0  0  0  0  0
   61.3843   -5.9252   84.9304 C   0  0  0  0  0  0  0  0  0  0  0  0
   60.3477   -6.9178   84.9580 N   0  0  0  0  0  0  0  0  0  0  0  0
   60.5960   -8.2832   85.3159 C   0  0  0  0  0  0  0  0  0  0  0  0
   61.7184   -8.9734   85.3630 N   0  0  0  0  0  0  0  0  0  0  0  0
   61.7024  -10.2007   85.7168 N   0  0  0  0  0  0  0  0  0  0  0  0
   62.6316  -11.2028   85.8793 C   0  0  0  0  0  0  0  0  0  0  0  0
   64.0739  -11.1108   85.6594 C   0  0  0  0  0  0  0  0  0  0  0  0
   64.9681  -12.1165   85.9391 C   0  0  0  0  0  0  0  0  0  0  0  0
   66.3243  -12.0015   85.7211 C   0  0  0  0  0  0  0  0  0  0  0  0
   66.8070  -10.8007   85.1894 C   0  0  0  0  0  0  0  0  0  0  0  0
   68.1748  -10.6985   84.9750 O   0  0  0  0  0  0  0  0  0  0  0  0
   65.9353   -9.7680   84.8963 C   0  0  0  0  0  0  0  0  0  0  0  0
   64.5667   -9.9374   85.1371 C   0  0  0  0  0  0  0  0  0  0  0  0
   62.0107  -12.3630   86.2951 C   0  0  0  0  0  0  0  0  0  0  0  0
   60.7048  -12.0812   86.3896 N   0  0  0  0  0  0  0  0  0  0  0  0
   60.5443  -10.7684   86.0350 C   0  0  0  0  0  0  0  0  0  0  0  0
   59.4560   -9.4538   85.8044 S   0  0  0  0  0  0  0  0  0  0  0  0
  1  2  1  0
  2  3  1  0
  3  4  1  0
  4  5  1  0
  5  6  2  0
  6  7  1  0
  7  8  1  0
  8  9  1  0
  9 10  2  0
 10 11  1  0
 11 12  2  0
 12 13  1  0
 12 14  1  0
 14 15  2  0
  8 16  2  0
 16 17  1  0
 17 18  2  0
 18 19  1  0
 19  5  1  0
 18  7  1  0
 15  9  1  0
M  END
$$$$
