
     RDKit          3D

 19 21  0  0  0  0  0  0  0  0999 V2000
   70.6178   21.5094   81.0637 C   0  0  0  0  0  0  0  0  0  0  0  0
   71.2594   20.9878   82.3171 C   0  0  0  0  0  0  0  0  0  0  0  0
   72.7531   21.1646   82.3283 C   0  0  0  0  0  0  0  0  0  0  0  0
   73.1582   21.9916   83.4294 N   0  0  0  0  0  0  0  0  0  0  0  0
   74.2273   22.9409   83.3293 C   0  0  0  0  0  0  0  0  0  0  0  0
   74.7459   23.5504   82.2813 N   0  0  0  0  0  0  0  0  0  0  0  0
   75.7120   24.3725   82.4305 N   0  0  0  0  0  0  0  0  0  0  0  0
   76.4803   25.1663   81.6098 C   0  0  0  0  0  0  0  0  0  0  0  0
   76.3763   25.2922   80.1571 C   0  0  0  0  0  0  0  0  0  0  0  0
   77.0909   26.1914   79.4021 C   0  0  0  0  0  0  0  0  0  0  0  0
   76.9722   26.2877   78.0322 C   0  0  0  0  0  0  0  0  0  0  0  0
   76.0796   25.4257   77.3857 C   0  0  0  0  0  0  0  0  0  0  0  0
   75.9700   25.5335   76.0060 O   0  0  0  0  0  0  0  0  0  0  0  0
   75.3447   24.5087   78.1145 C   0  0  0  0  0  0  0  0  0  0  0  0
   75.5036   24.4528   79.5043 C   0  0  0  0  0  0  0  0  0  0  0  0
   77.4071   25.8647   82.3568 C   0  0  0  0  0  0  0  0  0  0  0  0
   77.2139   25.5056   83.6325 N   0  0  0  0  0  0  0  0  0  0  0  0
   76.1842   24.6031   83.6507 C   0  0  0  0  0  0  0  0  0  0  0  0
   75.1736   23.5787   84.5966 S   0  0  0  0  0  0  0  0  0  0  0  0
  1  2  1  0
  2  3  1  0
  3  4  1  0
  4  5  1  0
  5  6  2  0
  6  7  1  0
  7  8  1  0
  8  9  1  0
  9 10  2  0
 10 11  1  0
 11 12  2  0
 12 13  1  0
 12 14  1  0
 14 15  2  0
  8 16  2  0
 16 17  1  0
 17 18  2  0
 18 19  1  0
 19  5  1  0
 18  7  1  0
 15  9  1  0
M  END
$$$$
