
     RDKit          3D

 19 21  0  0  0  0  0  0  0  0999 V2000
   62.5596   -5.0534   83.0041 C   0  0  0  0  0  0  0  0  0  0  0  0
   62.5016   -6.1502   84.0280 C   0  0  0  0  0  0  0  0  0  0  0  0
   61.4441   -5.9212   85.0729 C   0  0  0  0  0  0  0  0  0  0  0  0
   60.4371   -6.9421   85.0084 N   0  0  0  0  0  0  0  0  0  0  0  0
   60.6909   -8.3015   85.3848 C   0  0  0  0  0  0  0  0  0  0  0  0
   61.8173   -8.9837   85.4501 N   0  0  0  0  0  0  0  0  0  0  0  0
   61.8061  -10.2067   85.8184 N   0  0  0  0  0  0  0  0  0  0  0  0
   62.7402  -11.2008   86.0009 C   0  0  0  0  0  0  0  0  0  0  0  0
   64.1838  -11.1020   85.7926 C   0  0  0  0  0  0  0  0  0  0  0  0
   65.0763  -12.1164   86.0449 C   0  0  0  0  0  0  0  0  0  0  0  0
   66.4338  -11.9947   85.8387 C   0  0  0  0  0  0  0  0  0  0  0  0
   66.9196  -10.7773   85.3490 C   0  0  0  0  0  0  0  0  0  0  0  0
   68.2886  -10.6685   85.1461 O   0  0  0  0  0  0  0  0  0  0  0  0
   66.0496   -9.7355   85.0843 C   0  0  0  0  0  0  0  0  0  0  0  0
   64.6796   -9.9124   85.3115 C   0  0  0  0  0  0  0  0  0  0  0  0
   62.1232  -12.3600   86.4251 C   0  0  0  0  0  0  0  0  0  0  0  0
   60.8147  -12.0856   86.5048 N   0  0  0  0  0  0  0  0  0  0  0  0
   60.6488  -10.7782   86.1331 C   0  0  0  0  0  0  0  0  0  0  0  0
   59.5542   -9.4737   85.8772 S   0  0  0  0  0  0  0  0  0  0  0  0
  1  2  1  0
  2  3  1  0
  3  4  1  0
  4  5  1  0
  5  6  2  0
  6  7  1  0
  7  8  1  0
  8  9  1  0
  9 10  2  0
 10 11  1  0
 11 12  2  0
 12 13  1  0
 12 14  1  0
 14 15  2  0
  8 16  2  0
 16 17  1  0
 17 18  2  0
 18 19  1  0
 19  5  1  0
 18  7  1  0
 15  9  1  0
M  END
$$$$
