
     RDKit          3D

 19 21  0  0  0  0  0  0  0  0999 V2000
   71.6683   20.5614   80.3895 C   0  0  0  0  0  0  0  0  0  0  0  0
   72.6281   20.7658   81.5261 C   0  0  0  0  0  0  0  0  0  0  0  0
   72.1593   21.8025   82.5099 C   0  0  0  0  0  0  0  0  0  0  0  0
   73.1476   22.0196   83.5282 N   0  0  0  0  0  0  0  0  0  0  0  0
   74.1838   23.0017   83.4012 C   0  0  0  0  0  0  0  0  0  0  0  0
   74.6468   23.6367   82.3425 N   0  0  0  0  0  0  0  0  0  0  0  0
   75.5926   24.4861   82.4668 N   0  0  0  0  0  0  0  0  0  0  0  0
   76.3076   25.3107   81.6285 C   0  0  0  0  0  0  0  0  0  0  0  0
   76.1489   25.4476   80.1818 C   0  0  0  0  0  0  0  0  0  0  0  0
   76.8199   26.3660   79.4100 C   0  0  0  0  0  0  0  0  0  0  0  0
   76.6500   26.4724   78.0463 C   0  0  0  0  0  0  0  0  0  0  0  0
   75.7498   25.6004   77.4242 C   0  0  0  0  0  0  0  0  0  0  0  0
   75.5884   25.7185   76.0504 O   0  0  0  0  0  0  0  0  0  0  0  0
   75.0578   24.6641   78.1703 C   0  0  0  0  0  0  0  0  0  0  0  0
   75.2679   24.5986   79.5529 C   0  0  0  0  0  0  0  0  0  0  0  0
   77.2388   26.0294   82.3503 C   0  0  0  0  0  0  0  0  0  0  0  0
   77.1014   25.6521   83.6280 N   0  0  0  0  0  0  0  0  0  0  0  0
   76.1004   24.7189   83.6722 C   0  0  0  0  0  0  0  0  0  0  0  0
   75.1545   23.6553   84.6416 S   0  0  0  0  0  0  0  0  0  0  0  0
  1  2  1  0
  2  3  1  0
  3  4  1  0
  4  5  1  0
  5  6  2  0
  6  7  1  0
  7  8  1  0
  8  9  1  0
  9 10  2  0
 10 11  1  0
 11 12  2  0
 12 13  1  0
 12 14  1  0
 14 15  2  0
  8 16  2  0
 16 17  1  0
 17 18  2  0
 18 19  1  0
 19  5  1  0
 18  7  1  0
 15  9  1  0
M  END
$$$$
