
     RDKit          3D

 19 21  0  0  0  0  0  0  0  0999 V2000
   62.6787   -4.9897   83.0412 C   0  0  0  0  0  0  0  0  0  0  0  0
   62.4653   -6.1754   83.9376 C   0  0  0  0  0  0  0  0  0  0  0  0
   61.3914   -5.9472   84.9657 C   0  0  0  0  0  0  0  0  0  0  0  0
   60.3769   -6.9584   84.8732 N   0  0  0  0  0  0  0  0  0  0  0  0
   60.6104   -8.3225   85.2462 C   0  0  0  0  0  0  0  0  0  0  0  0
   61.7259   -9.0229   85.3051 N   0  0  0  0  0  0  0  0  0  0  0  0
   61.6966  -10.2462   85.6714 N   0  0  0  0  0  0  0  0  0  0  0  0
   62.6154  -11.2555   85.8480 C   0  0  0  0  0  0  0  0  0  0  0  0
   64.0593  -11.1797   85.6331 C   0  0  0  0  0  0  0  0  0  0  0  0
   64.9433  -12.1890   85.9319 C   0  0  0  0  0  0  0  0  0  0  0  0
   66.3014  -12.0894   85.7184 C   0  0  0  0  0  0  0  0  0  0  0  0
   66.7971  -10.9010   85.1709 C   0  0  0  0  0  0  0  0  0  0  0  0
   68.1667  -10.8143   84.9611 O   0  0  0  0  0  0  0  0  0  0  0  0
   65.9360   -9.8651   84.8584 C   0  0  0  0  0  0  0  0  0  0  0  0
   64.5649  -10.0188   85.0956 C   0  0  0  0  0  0  0  0  0  0  0  0
   61.9816  -12.4054   86.2730 C   0  0  0  0  0  0  0  0  0  0  0  0
   60.6781  -12.1100   86.3591 N   0  0  0  0  0  0  0  0  0  0  0  0
   60.5317  -10.7995   85.9904 C   0  0  0  0  0  0  0  0  0  0  0  0
   59.4572   -9.4769   85.7418 S   0  0  0  0  0  0  0  0  0  0  0  0
  1  2  1  0
  2  3  1  0
  3  4  1  0
  4  5  1  0
  5  6  2  0
  6  7  1  0
  7  8  1  0
  8  9  1  0
  9 10  2  0
 10 11  1  0
 11 12  2  0
 12 13  1  0
 12 14  1  0
 14 15  2  0
  8 16  2  0
 16 17  1  0
 17 18  2  0
 18 19  1  0
 19  5  1  0
 18  7  1  0
 15  9  1  0
M  END
$$$$
