
     RDKit          3D

 19 21  0  0  0  0  0  0  0  0999 V2000
   57.4260    6.0888   60.2644 C   0  0  0  0  0  0  0  0  0  0  0  0
   56.8555    5.8463   58.8968 C   0  0  0  0  0  0  0  0  0  0  0  0
   55.9356    6.9461   58.4421 C   0  0  0  0  0  0  0  0  0  0  0  0
   56.3116    7.4161   57.1389 N   0  0  0  0  0  0  0  0  0  0  0  0
   56.1154    6.6380   55.9514 C   0  0  0  0  0  0  0  0  0  0  0  0
   55.9641    5.3387   55.7853 N   0  0  0  0  0  0  0  0  0  0  0  0
   55.8003    4.8566   54.6139 N   0  0  0  0  0  0  0  0  0  0  0  0
   55.6173    3.6067   54.0677 C   0  0  0  0  0  0  0  0  0  0  0  0
   55.5541    2.3334   54.7831 C   0  0  0  0  0  0  0  0  0  0  0  0
   55.2432    1.1287   54.1990 C   0  0  0  0  0  0  0  0  0  0  0  0
   55.1911   -0.0575   54.8992 C   0  0  0  0  0  0  0  0  0  0  0  0
   55.4693   -0.0263   56.2701 C   0  0  0  0  0  0  0  0  0  0  0  0
   55.4132   -1.2280   56.9630 O   0  0  0  0  0  0  0  0  0  0  0  0
   55.7857    1.1685   56.8901 C   0  0  0  0  0  0  0  0  0  0  0  0
   55.8246    2.3447   56.1318 C   0  0  0  0  0  0  0  0  0  0  0  0
   55.4941    3.7013   52.6964 C   0  0  0  0  0  0  0  0  0  0  0  0
   55.6003    5.0020   52.3951 N   0  0  0  0  0  0  0  0  0  0  0  0
   55.7847    5.6791   53.5709 C   0  0  0  0  0  0  0  0  0  0  0  0
   56.0180    7.2000   54.3442 S   0  0  0  0  0  0  0  0  0  0  0  0
  1  2  1  0
  2  3  1  0
  3  4  1  0
  4  5  1  0
  5  6  2  0
  6  7  1  0
  7  8  1  0
  8  9  1  0
  9 10  2  0
 10 11  1  0
 11 12  2  0
 12 13  1  0
 12 14  1  0
 14 15  2  0
  8 16  2  0
 16 17  1  0
 17 18  2  0
 18 19  1  0
 19  5  1  0
 18  7  1  0
 15  9  1  0
M  END
$$$$
