
     RDKit          3D

 11 11  0  0  0  0  0  0  0  0999 V2000
   24.5984   10.9912   36.4854 C   0  0  0  0  0  0  0  0  0  0  0  0
   24.7698   11.8470   35.3718 O   0  0  0  0  0  0  0  0  0  0  0  0
   24.1683   11.5736   34.1586 C   0  0  0  0  0  0  0  0  0  0  0  0
   23.2460   10.5612   34.0705 C   0  0  0  0  0  0  0  0  0  0  0  0
   22.6218   10.2632   32.8544 C   0  0  0  0  0  0  0  0  0  0  0  0
   21.6560    9.1880   32.8073 C   0  0  0  0  0  0  0  0  0  0  0  0
   21.0462    8.9159   31.7536 O   0  0  0  0  0  0  0  0  0  0  0  0
   22.9635   11.0197   31.7472 C   0  0  0  0  0  0  0  0  0  0  0  0
   23.8707   12.0275   31.7977 C   0  0  0  0  0  0  0  0  0  0  0  0
   24.4706   12.2934   33.0281 C   0  0  0  0  0  0  0  0  0  0  0  0
   25.4012   13.3116   33.1265 O   0  0  0  0  0  0  0  0  0  0  0  0
  1  2  1  0
  2  3  1  0
  3  4  2  0
  4  5  1  0
  5  6  1  0
  6  7  2  0
  5  8  2  0
  8  9  1  0
  9 10  2  0
 10 11  1  0
 10  3  1  0
M  END
$$$$
