
     RDKit          3D

 11 11  0  0  0  0  0  0  0  0999 V2000
   17.4733   11.0802   25.8230 C   0  0  0  0  0  0  0  0  0  0  0  0
   18.1317   11.2361   27.0656 O   0  0  0  0  0  0  0  0  0  0  0  0
   18.1080   10.2371   28.0194 C   0  0  0  0  0  0  0  0  0  0  0  0
   17.3958    9.0882   27.7823 C   0  0  0  0  0  0  0  0  0  0  0  0
   17.3550    8.0608   28.7310 C   0  0  0  0  0  0  0  0  0  0  0  0
   16.5919    6.8675   28.4394 C   0  0  0  0  0  0  0  0  0  0  0  0
   16.4350    5.9774   29.2992 O   0  0  0  0  0  0  0  0  0  0  0  0
   18.0536    8.2399   29.9120 C   0  0  0  0  0  0  0  0  0  0  0  0
   18.7678    9.3621   30.1798 C   0  0  0  0  0  0  0  0  0  0  0  0
   18.7836   10.3629   29.2090 C   0  0  0  0  0  0  0  0  0  0  0  0
   19.4986   11.5241   29.4391 O   0  0  0  0  0  0  0  0  0  0  0  0
  1  2  1  0
  2  3  1  0
  3  4  2  0
  4  5  1  0
  5  6  1  0
  6  7  2  0
  5  8  2  0
  8  9  1  0
  9 10  2  0
 10 11  1  0
 10  3  1  0
M  END
$$$$
