
     RDKit          3D

 11 11  0  0  0  0  0  0  0  0999 V2000
    3.6379   -0.6344   39.3052 C   0  0  0  0  0  0  0  0  0  0  0  0
    3.8820    0.6863   38.8601 O   0  0  0  0  0  0  0  0  0  0  0  0
    3.5873    1.0726   37.5669 C   0  0  0  0  0  0  0  0  0  0  0  0
    2.8768    0.2286   36.7509 C   0  0  0  0  0  0  0  0  0  0  0  0
    2.5648    0.5948   35.4372 C   0  0  0  0  0  0  0  0  0  0  0  0
    1.8141   -0.3258   34.6125 C   0  0  0  0  0  0  0  0  0  0  0  0
    1.7687   -0.1900   33.3732 O   0  0  0  0  0  0  0  0  0  0  0  0
    2.9944    1.8315   34.9890 C   0  0  0  0  0  0  0  0  0  0  0  0
    3.6985    2.6910   35.7678 C   0  0  0  0  0  0  0  0  0  0  0  0
    3.9894    2.2892   37.0709 C   0  0  0  0  0  0  0  0  0  0  0  0
    4.7050    3.1331   37.9005 O   0  0  0  0  0  0  0  0  0  0  0  0
  1  2  1  0
  2  3  1  0
  3  4  2  0
  4  5  1  0
  5  6  1  0
  6  7  2  0
  5  8  2  0
  8  9  1  0
  9 10  2  0
 10 11  1  0
 10  3  1  0
M  END
$$$$
