
     RDKit          3D

 11 11  0  0  0  0  0  0  0  0999 V2000
   19.7398   12.8781   35.2361 C   0  0  0  0  0  0  0  0  0  0  0  0
   21.0988   12.5954   34.9623 O   0  0  0  0  0  0  0  0  0  0  0  0
   21.4663   11.4801   34.2346 C   0  0  0  0  0  0  0  0  0  0  0  0
   20.4987   10.6370   33.7485 C   0  0  0  0  0  0  0  0  0  0  0  0
   20.8430    9.5006   33.0087 C   0  0  0  0  0  0  0  0  0  0  0  0
   19.7908    8.6399   32.5157 C   0  0  0  0  0  0  0  0  0  0  0  0
   20.0365    7.7179   31.7121 O   0  0  0  0  0  0  0  0  0  0  0  0
   22.1862    9.2553   32.7837 C   0  0  0  0  0  0  0  0  0  0  0  0
   23.1690   10.0668   33.2489 C   0  0  0  0  0  0  0  0  0  0  0  0
   22.7850   11.1891   33.9819 C   0  0  0  0  0  0  0  0  0  0  0  0
   23.7530   12.0445   34.4757 O   0  0  0  0  0  0  0  0  0  0  0  0
  1  2  1  0
  2  3  1  0
  3  4  2  0
  4  5  1  0
  5  6  1  0
  6  7  2  0
  5  8  2  0
  8  9  1  0
  9 10  2  0
 10 11  1  0
 10  3  1  0
M  END
$$$$
