
     RDKit          3D

 11 11  0  0  0  0  0  0  0  0999 V2000
   26.2269   10.7125   36.3054 C   0  0  0  0  0  0  0  0  0  0  0  0
   26.0768   11.7611   35.3675 O   0  0  0  0  0  0  0  0  0  0  0  0
   25.2376   11.6329   34.2776 C   0  0  0  0  0  0  0  0  0  0  0  0
   24.5430   10.4646   34.0886 C   0  0  0  0  0  0  0  0  0  0  0  0
   23.6865   10.3082   32.9935 C   0  0  0  0  0  0  0  0  0  0  0  0
   22.9742    9.0600   32.8335 C   0  0  0  0  0  0  0  0  0  0  0  0
   22.1587    8.8986   31.9034 O   0  0  0  0  0  0  0  0  0  0  0  0
   23.5631   11.3661   32.1101 C   0  0  0  0  0  0  0  0  0  0  0  0
   24.2342   12.5351   32.2657 C   0  0  0  0  0  0  0  0  0  0  0  0
   25.0779   12.6517   33.3697 C   0  0  0  0  0  0  0  0  0  0  0  0
   25.7820   13.8253   33.5683 O   0  0  0  0  0  0  0  0  0  0  0  0
  1  2  1  0
  2  3  1  0
  3  4  2  0
  4  5  1  0
  5  6  1  0
  6  7  2  0
  5  8  2  0
  8  9  1  0
  9 10  2  0
 10 11  1  0
 10  3  1  0
M  END
$$$$
