
     RDKit          3D

 11 11  0  0  0  0  0  0  0  0999 V2000
   26.8773   11.3327   35.2873 C   0  0  0  0  0  0  0  0  0  0  0  0
   25.7245   12.1110   35.5464 O   0  0  0  0  0  0  0  0  0  0  0  0
   24.4782   11.7164   35.0997 C   0  0  0  0  0  0  0  0  0  0  0  0
   24.3631   10.6077   34.2992 C   0  0  0  0  0  0  0  0  0  0  0  0
   23.1133   10.1860   33.8330 C   0  0  0  0  0  0  0  0  0  0  0  0
   23.0386    9.0122   32.9918 C   0  0  0  0  0  0  0  0  0  0  0  0
   21.9571    8.6499   32.4864 O   0  0  0  0  0  0  0  0  0  0  0  0
   22.0008   10.9207   34.2038 C   0  0  0  0  0  0  0  0  0  0  0  0
   22.0774   12.0214   34.9935 C   0  0  0  0  0  0  0  0  0  0  0  0
   23.3410   12.4092   35.4376 C   0  0  0  0  0  0  0  0  0  0  0  0
   23.4668   13.5252   36.2446 O   0  0  0  0  0  0  0  0  0  0  0  0
  1  2  1  0
  2  3  1  0
  3  4  2  0
  4  5  1  0
  5  6  1  0
  6  7  2  0
  5  8  2  0
  8  9  1  0
  9 10  2  0
 10 11  1  0
 10  3  1  0
M  END
$$$$
