
     RDKit          3D

 11 11  0  0  0  0  0  0  0  0999 V2000
   25.6242    6.9281   34.1913 C   0  0  0  0  0  0  0  0  0  0  0  0
   25.3311    8.2901   33.9446 O   0  0  0  0  0  0  0  0  0  0  0  0
   24.2574    8.6610   33.1584 C   0  0  0  0  0  0  0  0  0  0  0  0
   23.4104    7.6992   32.6676 C   0  0  0  0  0  0  0  0  0  0  0  0
   22.3156    8.0471   31.8691 C   0  0  0  0  0  0  0  0  0  0  0  0
   21.4491    7.0009   31.3734 C   0  0  0  0  0  0  0  0  0  0  0  0
   20.4945    7.2614   30.6137 O   0  0  0  0  0  0  0  0  0  0  0  0
   22.1153    9.3878   31.5911 C   0  0  0  0  0  0  0  0  0  0  0  0
   22.9321   10.3650   32.0591 C   0  0  0  0  0  0  0  0  0  0  0  0
   24.0121    9.9775   32.8515 C   0  0  0  0  0  0  0  0  0  0  0  0
   24.8710   10.9397   33.3504 O   0  0  0  0  0  0  0  0  0  0  0  0
  1  2  1  0
  2  3  1  0
  3  4  2  0
  4  5  1  0
  5  6  1  0
  6  7  2  0
  5  8  2  0
  8  9  1  0
  9 10  2  0
 10 11  1  0
 10  3  1  0
M  END
$$$$
