
     RDKit          3D

 11 11  0  0  0  0  0  0  0  0999 V2000
    3.6480    1.7039   39.2820 C   0  0  0  0  0  0  0  0  0  0  0  0
    3.1109    0.9452   38.2154 O   0  0  0  0  0  0  0  0  0  0  0  0
    3.3430    1.2950   36.8992 C   0  0  0  0  0  0  0  0  0  0  0  0
    4.1481    2.3689   36.6135 C   0  0  0  0  0  0  0  0  0  0  0  0
    4.3998    2.7448   35.2896 C   0  0  0  0  0  0  0  0  0  0  0  0
    5.2543    3.8831   35.0346 C   0  0  0  0  0  0  0  0  0  0  0  0
    5.5525    4.2165   33.8701 O   0  0  0  0  0  0  0  0  0  0  0  0
    3.8125    2.0011   34.2812 C   0  0  0  0  0  0  0  0  0  0  0  0
    3.0115    0.9339   34.5269 C   0  0  0  0  0  0  0  0  0  0  0  0
    2.7852    0.5912   35.8594 C   0  0  0  0  0  0  0  0  0  0  0  0
    1.9752   -0.4895   36.1570 O   0  0  0  0  0  0  0  0  0  0  0  0
  1  2  1  0
  2  3  1  0
  3  4  2  0
  4  5  1  0
  5  6  1  0
  6  7  2  0
  5  8  2  0
  8  9  1  0
  9 10  2  0
 10 11  1  0
 10  3  1  0
M  END
$$$$
