
     RDKit          3D

 11 11  0  0  0  0  0  0  0  0999 V2000
    3.6960   -0.3532   39.4442 C   0  0  0  0  0  0  0  0  0  0  0  0
    4.0521    0.8588   38.8071 O   0  0  0  0  0  0  0  0  0  0  0  0
    3.6372    1.1406   37.5199 C   0  0  0  0  0  0  0  0  0  0  0  0
    2.8711    0.2288   36.8381 C   0  0  0  0  0  0  0  0  0  0  0  0
    2.4374    0.4887   35.5336 C   0  0  0  0  0  0  0  0  0  0  0  0
    1.6318   -0.5004   34.8526 C   0  0  0  0  0  0  0  0  0  0  0  0
    1.3483   -0.3788   33.6439 O   0  0  0  0  0  0  0  0  0  0  0  0
    2.8048    1.6909   34.9552 C   0  0  0  0  0  0  0  0  0  0  0  0
    3.5611    2.6151   35.5994 C   0  0  0  0  0  0  0  0  0  0  0  0
    3.9734    2.3187   36.8980 C   0  0  0  0  0  0  0  0  0  0  0  0
    4.7457    3.2315   37.5928 O   0  0  0  0  0  0  0  0  0  0  0  0
  1  2  1  0
  2  3  1  0
  3  4  2  0
  4  5  1  0
  5  6  1  0
  6  7  2  0
  5  8  2  0
  8  9  1  0
  9 10  2  0
 10 11  1  0
 10  3  1  0
M  END
$$$$
