
     RDKit          3D

 11 11  0  0  0  0  0  0  0  0999 V2000
   26.4665   11.4830   35.2808 C   0  0  0  0  0  0  0  0  0  0  0  0
   25.3033   12.2483   35.5318 O   0  0  0  0  0  0  0  0  0  0  0  0
   24.0714   11.8617   35.0405 C   0  0  0  0  0  0  0  0  0  0  0  0
   23.9679   10.7175   34.2901 C   0  0  0  0  0  0  0  0  0  0  0  0
   22.7327   10.3030   33.7803 C   0  0  0  0  0  0  0  0  0  0  0  0
   22.6699    9.0907   32.9945 C   0  0  0  0  0  0  0  0  0  0  0  0
   21.5980    8.7102   32.4822 O   0  0  0  0  0  0  0  0  0  0  0  0
   21.6226   11.0817   34.0564 C   0  0  0  0  0  0  0  0  0  0  0  0
   21.6880   12.2184   34.7944 C   0  0  0  0  0  0  0  0  0  0  0  0
   22.9371   12.5976   35.2845 C   0  0  0  0  0  0  0  0  0  0  0  0
   23.0511   13.7492   36.0416 O   0  0  0  0  0  0  0  0  0  0  0  0
  1  2  1  0
  2  3  1  0
  3  4  2  0
  4  5  1  0
  5  6  1  0
  6  7  2  0
  5  8  2  0
  8  9  1  0
  9 10  2  0
 10 11  1  0
 10  3  1  0
M  END
$$$$
