
     RDKit          3D

 11 11  0  0  0  0  0  0  0  0999 V2000
    2.9325   -1.5948   38.9958 C   0  0  0  0  0  0  0  0  0  0  0  0
    3.2401   -0.2168   39.0865 O   0  0  0  0  0  0  0  0  0  0  0  0
    3.3197    0.5754   37.9575 C   0  0  0  0  0  0  0  0  0  0  0  0
    2.9094    0.0762   36.7469 C   0  0  0  0  0  0  0  0  0  0  0  0
    2.9792    0.8568   35.5880 C   0  0  0  0  0  0  0  0  0  0  0  0
    2.5359    0.2903   34.3335 C   0  0  0  0  0  0  0  0  0  0  0  0
    2.0492   -0.8572   34.2814 O   0  0  0  0  0  0  0  0  0  0  0  0
    3.4736    2.1442   35.7018 C   0  0  0  0  0  0  0  0  0  0  0  0
    3.8880    2.6702   36.8819 C   0  0  0  0  0  0  0  0  0  0  0  0
    3.8025    1.8605   38.0138 C   0  0  0  0  0  0  0  0  0  0  0  0
    4.2136    2.3550   39.2381 O   0  0  0  0  0  0  0  0  0  0  0  0
  1  2  1  0
  2  3  1  0
  3  4  2  0
  4  5  1  0
  5  6  1  0
  6  7  2  0
  5  8  2  0
  8  9  1  0
  9 10  2  0
 10 11  1  0
 10  3  1  0
M  END
$$$$
