
     RDKit          3D

 11 11  0  0  0  0  0  0  0  0999 V2000
   26.3724    7.3280   34.8639 C   0  0  0  0  0  0  0  0  0  0  0  0
   26.2209    8.6994   34.5506 O   0  0  0  0  0  0  0  0  0  0  0  0
   25.1851    9.1414   33.7505 C   0  0  0  0  0  0  0  0  0  0  0  0
   24.2540    8.2457   33.2879 C   0  0  0  0  0  0  0  0  0  0  0  0
   23.1951    8.6664   32.4761 C   0  0  0  0  0  0  0  0  0  0  0  0
   22.2369    7.6882   32.0113 C   0  0  0  0  0  0  0  0  0  0  0  0
   21.2956    8.0150   31.2607 O   0  0  0  0  0  0  0  0  0  0  0  0
   23.1174   10.0103   32.1558 C   0  0  0  0  0  0  0  0  0  0  0  0
   24.0198   10.9234   32.5952 C   0  0  0  0  0  0  0  0  0  0  0  0
   25.0603   10.4645   33.4020 C   0  0  0  0  0  0  0  0  0  0  0  0
   26.0033   11.3599   33.8727 O   0  0  0  0  0  0  0  0  0  0  0  0
  1  2  1  0
  2  3  1  0
  3  4  2  0
  4  5  1  0
  5  6  1  0
  6  7  2  0
  5  8  2  0
  8  9  1  0
  9 10  2  0
 10 11  1  0
 10  3  1  0
M  END
$$$$
