
     RDKit          3D

 11 11  0  0  0  0  0  0  0  0999 V2000
   25.3641   11.7584   35.1357 C   0  0  0  0  0  0  0  0  0  0  0  0
   24.2019   12.5283   35.3771 O   0  0  0  0  0  0  0  0  0  0  0  0
   22.9639   12.1195   34.9203 C   0  0  0  0  0  0  0  0  0  0  0  0
   22.8526   10.9465   34.2169 C   0  0  0  0  0  0  0  0  0  0  0  0
   21.6111   10.5092   33.7428 C   0  0  0  0  0  0  0  0  0  0  0  0
   21.5402    9.2668   33.0061 C   0  0  0  0  0  0  0  0  0  0  0  0
   20.4760    8.8946   32.4724 O   0  0  0  0  0  0  0  0  0  0  0  0
   20.5029   11.2951   34.0054 C   0  0  0  0  0  0  0  0  0  0  0  0
   20.5759   12.4600   34.6973 C   0  0  0  0  0  0  0  0  0  0  0  0
   21.8311   12.8614   35.1528 C   0  0  0  0  0  0  0  0  0  0  0  0
   21.9530   14.0421   35.8625 O   0  0  0  0  0  0  0  0  0  0  0  0
  1  2  1  0
  2  3  1  0
  3  4  2  0
  4  5  1  0
  5  6  1  0
  6  7  2  0
  5  8  2  0
  8  9  1  0
  9 10  2  0
 10 11  1  0
 10  3  1  0
M  END
$$$$
