
     RDKit          3D

 11 11  0  0  0  0  0  0  0  0999 V2000
   26.5691   11.9039   34.9759 C   0  0  0  0  0  0  0  0  0  0  0  0
   25.3738   12.6042   35.2637 O   0  0  0  0  0  0  0  0  0  0  0  0
   24.1419   12.1027   34.8905 C   0  0  0  0  0  0  0  0  0  0  0  0
   24.0728   10.9346   34.1736 C   0  0  0  0  0  0  0  0  0  0  0  0
   22.8384   10.4045   33.7829 C   0  0  0  0  0  0  0  0  0  0  0  0
   22.8125    9.1711   33.0285 C   0  0  0  0  0  0  0  0  0  0  0  0
   21.7504    8.7390   32.5370 O   0  0  0  0  0  0  0  0  0  0  0  0
   21.6935   11.0939   34.1416 C   0  0  0  0  0  0  0  0  0  0  0  0
   21.7243   12.2509   34.8497 C   0  0  0  0  0  0  0  0  0  0  0  0
   22.9739   12.7466   35.2202 C   0  0  0  0  0  0  0  0  0  0  0  0
   23.0534   13.9230   35.9428 O   0  0  0  0  0  0  0  0  0  0  0  0
  1  2  1  0
  2  3  1  0
  3  4  2  0
  4  5  1  0
  5  6  1  0
  6  7  2  0
  5  8  2  0
  8  9  1  0
  9 10  2  0
 10 11  1  0
 10  3  1  0
M  END
$$$$
