
     RDKit          3D

 11 11  0  0  0  0  0  0  0  0999 V2000
    4.0885   -0.4631   39.1216 C   0  0  0  0  0  0  0  0  0  0  0  0
    3.6984   -0.1906   37.7892 O   0  0  0  0  0  0  0  0  0  0  0  0
    3.1897   -1.1833   36.9742 C   0  0  0  0  0  0  0  0  0  0  0  0
    3.0957   -2.4683   37.4466 C   0  0  0  0  0  0  0  0  0  0  0  0
    2.5844   -3.4927   36.6425 C   0  0  0  0  0  0  0  0  0  0  0  0
    2.5035   -4.8323   37.1811 C   0  0  0  0  0  0  0  0  0  0  0  0
    2.0387   -5.7715   36.5042 O   0  0  0  0  0  0  0  0  0  0  0  0
    2.1780   -3.1692   35.3599 C   0  0  0  0  0  0  0  0  0  0  0  0
    2.2565   -1.9102   34.8602 C   0  0  0  0  0  0  0  0  0  0  0  0
    2.7717   -0.9174   35.6928 C   0  0  0  0  0  0  0  0  0  0  0  0
    2.8702    0.3804   35.2254 O   0  0  0  0  0  0  0  0  0  0  0  0
  1  2  1  0
  2  3  1  0
  3  4  2  0
  4  5  1  0
  5  6  1  0
  6  7  2  0
  5  8  2  0
  8  9  1  0
  9 10  2  0
 10 11  1  0
 10  3  1  0
M  END
$$$$
