
     RDKit          3D

 11 11  0  0  0  0  0  0  0  0999 V2000
    3.2565   -1.1932   38.6642 C   0  0  0  0  0  0  0  0  0  0  0  0
    3.6261    0.1724   38.6557 O   0  0  0  0  0  0  0  0  0  0  0  0
    3.4607    0.9525   37.5276 C   0  0  0  0  0  0  0  0  0  0  0  0
    2.8121    0.4365   36.4339 C   0  0  0  0  0  0  0  0  0  0  0  0
    2.6310    1.2046   35.2787 C   0  0  0  0  0  0  0  0  0  0  0  0
    1.9417    0.6205   34.1496 C   0  0  0  0  0  0  0  0  0  0  0  0
    1.9116    1.1983   33.0444 O   0  0  0  0  0  0  0  0  0  0  0  0
    3.1254    2.4970   35.2747 C   0  0  0  0  0  0  0  0  0  0  0  0
    3.7714    3.0395   36.3375 C   0  0  0  0  0  0  0  0  0  0  0  0
    3.9318    2.2419   37.4699 C   0  0  0  0  0  0  0  0  0  0  0  0
    4.5841    2.7533   38.5769 O   0  0  0  0  0  0  0  0  0  0  0  0
  1  2  1  0
  2  3  1  0
  3  4  2  0
  4  5  1  0
  5  6  1  0
  6  7  2  0
  5  8  2  0
  8  9  1  0
  9 10  2  0
 10 11  1  0
 10  3  1  0
M  END
$$$$
