
     RDKit          3D

 11 11  0  0  0  0  0  0  0  0999 V2000
   24.2365   14.0326   34.5007 C   0  0  0  0  0  0  0  0  0  0  0  0
   24.7390   12.8544   35.1017 O   0  0  0  0  0  0  0  0  0  0  0  0
   24.2420   11.6102   34.7650 C   0  0  0  0  0  0  0  0  0  0  0  0
   23.1629   11.5149   33.9226 C   0  0  0  0  0  0  0  0  0  0  0  0
   22.6395   10.2676   33.5654 C   0  0  0  0  0  0  0  0  0  0  0  0
   21.5014   10.2140   32.6749 C   0  0  0  0  0  0  0  0  0  0  0  0
   21.0715    9.1251   32.2442 O   0  0  0  0  0  0  0  0  0  0  0  0
   23.2432    9.1371   34.0873 C   0  0  0  0  0  0  0  0  0  0  0  0
   24.3111    9.1938   34.9225 C   0  0  0  0  0  0  0  0  0  0  0  0
   24.8031   10.4556   35.2545 C   0  0  0  0  0  0  0  0  0  0  0  0
   25.8902   10.5614   36.1028 O   0  0  0  0  0  0  0  0  0  0  0  0
  1  2  1  0
  2  3  1  0
  3  4  2  0
  4  5  1  0
  5  6  1  0
  6  7  2  0
  5  8  2  0
  8  9  1  0
  9 10  2  0
 10 11  1  0
 10  3  1  0
M  END
$$$$
