
     RDKit          3D

 11 11  0  0  0  0  0  0  0  0999 V2000
   18.4764   11.6493   28.3669 C   0  0  0  0  0  0  0  0  0  0  0  0
   19.5129   11.4588   29.3109 O   0  0  0  0  0  0  0  0  0  0  0  0
   19.6748   10.2521   29.9636 C   0  0  0  0  0  0  0  0  0  0  0  0
   18.8077    9.2197   29.7079 C   0  0  0  0  0  0  0  0  0  0  0  0
   18.9487    7.9872   30.3549 C   0  0  0  0  0  0  0  0  0  0  0  0
   18.0122    6.9270   30.0550 C   0  0  0  0  0  0  0  0  0  0  0  0
   17.0208    7.1307   29.3257 O   0  0  0  0  0  0  0  0  0  0  0  0
   19.9874    7.8436   31.2579 C   0  0  0  0  0  0  0  0  0  0  0  0
   20.8630    8.8424   31.5350 C   0  0  0  0  0  0  0  0  0  0  0  0
   20.6888   10.0553   30.8696 C   0  0  0  0  0  0  0  0  0  0  0  0
   21.5577   11.1014   31.1209 O   0  0  0  0  0  0  0  0  0  0  0  0
  1  2  1  0
  2  3  1  0
  3  4  2  0
  4  5  1  0
  5  6  1  0
  6  7  2  0
  5  8  2  0
  8  9  1  0
  9 10  2  0
 10 11  1  0
 10  3  1  0
M  END
$$$$
