
     RDKit          3D

 11 11  0  0  0  0  0  0  0  0999 V2000
    3.3304   -6.2822   33.0169 C   0  0  0  0  0  0  0  0  0  0  0  0
    3.1665   -4.9870   32.4717 O   0  0  0  0  0  0  0  0  0  0  0  0
    2.9980   -3.8831   33.2851 C   0  0  0  0  0  0  0  0  0  0  0  0
    2.9055   -4.0485   34.6442 C   0  0  0  0  0  0  0  0  0  0  0  0
    2.7347   -2.9480   35.4909 C   0  0  0  0  0  0  0  0  0  0  0  0
    2.6419   -3.1686   36.9171 C   0  0  0  0  0  0  0  0  0  0  0  0
    2.4928   -2.2153   37.7078 O   0  0  0  0  0  0  0  0  0  0  0  0
    2.6623   -1.6916   34.9154 C   0  0  0  0  0  0  0  0  0  0  0  0
    2.7500   -1.4911   33.5763 C   0  0  0  0  0  0  0  0  0  0  0  0
    2.9199   -2.6133   32.7664 C   0  0  0  0  0  0  0  0  0  0  0  0
    3.0142   -2.4563   31.3956 O   0  0  0  0  0  0  0  0  0  0  0  0
  1  2  1  0
  2  3  1  0
  3  4  2  0
  4  5  1  0
  5  6  1  0
  6  7  2  0
  5  8  2  0
  8  9  1  0
  9 10  2  0
 10 11  1  0
 10  3  1  0
M  END
$$$$
