
     RDKit          3D

 11 11  0  0  0  0  0  0  0  0999 V2000
   26.9050    8.6488   34.8197 C   0  0  0  0  0  0  0  0  0  0  0  0
   26.6504    9.9977   34.4771 O   0  0  0  0  0  0  0  0  0  0  0  0
   25.5896   10.3421   33.6620 C   0  0  0  0  0  0  0  0  0  0  0  0
   24.6952    9.3789   33.2677 C   0  0  0  0  0  0  0  0  0  0  0  0
   23.6120    9.7002   32.4426 C   0  0  0  0  0  0  0  0  0  0  0  0
   22.6941    8.6535   32.0515 C   0  0  0  0  0  0  0  0  0  0  0  0
   21.6986    8.9019   31.3421 O   0  0  0  0  0  0  0  0  0  0  0  0
   23.4723   11.0162   32.0384 C   0  0  0  0  0  0  0  0  0  0  0  0
   24.3371   11.9940   32.4088 C   0  0  0  0  0  0  0  0  0  0  0  0
   25.4035   11.6335   33.2315 C   0  0  0  0  0  0  0  0  0  0  0  0
   26.3099   12.5974   33.6340 O   0  0  0  0  0  0  0  0  0  0  0  0
  1  2  1  0
  2  3  1  0
  3  4  2  0
  4  5  1  0
  5  6  1  0
  6  7  2  0
  5  8  2  0
  8  9  1  0
  9 10  2  0
 10 11  1  0
 10  3  1  0
M  END
$$$$
