
     RDKit          3D

 11 11  0  0  0  0  0  0  0  0999 V2000
    4.0886    2.1960   38.4846 C   0  0  0  0  0  0  0  0  0  0  0  0
    3.5304    1.1712   37.6846 O   0  0  0  0  0  0  0  0  0  0  0  0
    3.5068    1.2702   36.3069 C   0  0  0  0  0  0  0  0  0  0  0  0
    4.1255    2.3292   35.6912 C   0  0  0  0  0  0  0  0  0  0  0  0
    4.1168    2.4539   34.2977 C   0  0  0  0  0  0  0  0  0  0  0  0
    4.7813    3.5860   33.6912 C   0  0  0  0  0  0  0  0  0  0  0  0
    5.5070    4.3440   34.3657 O   0  0  0  0  0  0  0  0  0  0  0  0
    3.4665    1.4781   33.5630 C   0  0  0  0  0  0  0  0  0  0  0  0
    2.8447    0.4180   34.1381 C   0  0  0  0  0  0  0  0  0  0  0  0
    2.8757    0.3296   35.5293 C   0  0  0  0  0  0  0  0  0  0  0  0
    2.2550   -0.7340   36.1585 O   0  0  0  0  0  0  0  0  0  0  0  0
  1  2  1  0
  2  3  1  0
  3  4  2  0
  4  5  1  0
  5  6  1  0
  6  7  2  0
  5  8  2  0
  8  9  1  0
  9 10  2  0
 10 11  1  0
 10  3  1  0
M  END
$$$$
