
     RDKit          3D

 11 11  0  0  0  0  0  0  0  0999 V2000
    3.1347   -2.9851   36.6729 C   0  0  0  0  0  0  0  0  0  0  0  0
    3.1948   -1.9728   37.6596 O   0  0  0  0  0  0  0  0  0  0  0  0
    3.2220   -0.6357   37.3136 C   0  0  0  0  0  0  0  0  0  0  0  0
    2.8676   -0.2552   36.0436 C   0  0  0  0  0  0  0  0  0  0  0  0
    2.8862    1.0920   35.6667 C   0  0  0  0  0  0  0  0  0  0  0  0
    2.5049    1.4478   34.3180 C   0  0  0  0  0  0  0  0  0  0  0  0
    2.6855    2.6022   33.8811 O   0  0  0  0  0  0  0  0  0  0  0  0
    3.2723    2.0251   36.6128 C   0  0  0  0  0  0  0  0  0  0  0  0
    3.6290    1.6849   37.8770 C   0  0  0  0  0  0  0  0  0  0  0  0
    3.5974    0.3322   38.2136 C   0  0  0  0  0  0  0  0  0  0  0  0
    3.9529   -0.0607   39.4910 O   0  0  0  0  0  0  0  0  0  0  0  0
  1  2  1  0
  2  3  1  0
  3  4  2  0
  4  5  1  0
  5  6  1  0
  6  7  2  0
  5  8  2  0
  8  9  1  0
  9 10  2  0
 10 11  1  0
 10  3  1  0
M  END
$$$$
