
     RDKit          3D

 11 11  0  0  0  0  0  0  0  0999 V2000
    2.4107   -1.7261   37.7981 C   0  0  0  0  0  0  0  0  0  0  0  0
    2.9972   -0.5446   38.3098 O   0  0  0  0  0  0  0  0  0  0  0  0
    3.2339    0.5476   37.4977 C   0  0  0  0  0  0  0  0  0  0  0  0
    2.7935    0.5361   36.1980 C   0  0  0  0  0  0  0  0  0  0  0  0
    3.0196    1.6287   35.3541 C   0  0  0  0  0  0  0  0  0  0  0  0
    2.5380    1.5735   33.9917 C   0  0  0  0  0  0  0  0  0  0  0  0
    2.6714    2.5459   33.2217 O   0  0  0  0  0  0  0  0  0  0  0  0
    3.6994    2.7177   35.8707 C   0  0  0  0  0  0  0  0  0  0  0  0
    4.1489    2.7635   37.1501 C   0  0  0  0  0  0  0  0  0  0  0  0
    3.9037    1.6548   37.9593 C   0  0  0  0  0  0  0  0  0  0  0  0
    4.3437    1.6575   39.2704 O   0  0  0  0  0  0  0  0  0  0  0  0
  1  2  1  0
  2  3  1  0
  3  4  2  0
  4  5  1  0
  5  6  1  0
  6  7  2  0
  5  8  2  0
  8  9  1  0
  9 10  2  0
 10 11  1  0
 10  3  1  0
M  END
$$$$
